*SIMULATION OVERVIEW FILE

*DSSAT Cropping System Model Ver. 4.5.1.023 -Stub         NOV 07, 2014; 01:51:49
                                                                                
*RUN   1        : 0 N check plot            SGCER045 ITHY8001    1              
 MODEL          : SGCER045 - Grain sorghum                                      
 EXPERIMENT     : ITHY8001 SG ICRISAT ALFISOL N 1980 EXPT 80-1                  
 DATA PATH      :                                                               
 TREATMENT  1   : 0 N check plot            SGCER045                            
                                                                                
                                                                                
 CROP           : Grain sorghum    CULTIVAR : CSH-1            ECOTYPE :IB0001  
 STARTING DATE  : JUN 13 1980                                                   
 PLANTING DATE  : JUN 17 1980        PLANTS/m2 : 18.0     ROW SPACING :  45.cm  
 WEATHER        : ITHY   1980                                                   
 SOIL           : IBSG910085     TEXTURE : -99   - Patencheru                   
 SOIL INITIAL C : DEPTH:172cm EXTR. H2O:150.8mm  NO3: 76.5kg/ha  NH4: 65.5kg/ha 
 WATER BALANCE  : RAINFED                                                       
 IRRIGATION     : NOT IRRIGATED                                                 
 NITROGEN BAL.  : SOIL-N & N-UPTAKE SIMULATION; NO N-FIXATION                   
 N-FERTILIZER   :        0 kg/ha IN     0 APPLICATIONS                          
 RESIDUE/MANURE : INITIAL :  1300 kg/ha ;       0 kg/ha IN     0 APPLICATIONS   
 ENVIRONM. OPT. : DAYL=    0.00  SRAD=    0.00  TMAX=    0.00  TMIN=    0.00    
                  RAIN=    0.00  CO2 =    0.00  DEW =    0.00  WIND=    0.00    
 SIMULATION OPT : WATER   :Y  NITROGEN:Y  N-FIX:N  PHOSPH :N  PESTS  :N         
                  PHOTO   :C  ET      :R  INFIL:S  HYDROL :R  SOM    :P         
                  CO2 338ppm  NSWIT   :1  EVAP :S  SOIL   :2                    
 MANAGEMENT OPT : PLANTING:R  IRRIG   :N  FERT :R  RESIDUE:N  HARVEST:M         
                  WEATHER :M  TILLAGE :N                                        
                                                                                
*SUMMARY OF SOIL AND GENETIC INPUT PARAMETERS                                   
                                                                                
   SOIL LOWER UPPER   SAT  EXTR  INIT   ROOT   BULK     pH    NO3    NH4    ORG 
  DEPTH LIMIT LIMIT    SW    SW    SW   DIST   DENS                          C  
   cm   cm3/cm3    cm3/cm3    cm3/cm3         g/cm3         ugN/g  ugN/g     %  
------------------------------------------------------------------------------- 
  0-  5 0.080 0.220 0.310 0.140 0.080   1.00   1.61   7.00   2.80   4.50   0.85 
  5- 15 0.085 0.220 0.310 0.135 0.085   0.95   1.61   7.00   3.80   4.00   0.70 
 15- 22 0.090 0.220 0.310 0.130 0.090   0.90   1.61   7.00   4.80   3.50   0.55 
 22- 37 0.125 0.245 0.315 0.120 0.135   0.70   1.62   7.00   4.50   3.00   0.51 
 37- 52 0.125 0.245 0.315 0.120 0.135   0.70   1.62   7.00   4.50   3.00   0.51 
 52- 67 0.150 0.230 0.290 0.080 0.160   0.50   1.64   7.00   5.00   3.50   0.63 
 67- 82 0.150 0.230 0.290 0.080 0.160   0.50   1.64   7.00   5.00   3.50   0.63 
 82-112 0.160 0.240 0.310 0.080 0.175   0.10   1.64   7.00   2.00   2.00   0.10 
112-142 0.173 0.240 0.310 0.067 0.200   0.05   1.64   7.00   0.70   1.00   0.10 
142-172 0.193 0.250 0.320 0.057 0.200   0.03   1.64   7.00   0.60   1.00   0.10 
                                                                                
TOT-172  25.9  41.0  53.2  15.1  28.0  <--cm   -  kg/ha-->   76.5   65.5  94853 
SOIL ALBEDO    : 0.13      EVAPORATION LIMIT : 6.00         MIN. FACTOR  : 1.00 
RUNOFF CURVE # :80.00      DRAINAGE RATE     : 0.30         FERT. FACTOR : 1.00 
                                                                                
 Grain sorg CULTIVAR :IB0026-CSH-1              ECOTYPE :IB0001                 
 P1     :410.0  P2O    :13.60  P2R    :  40.0  P5     :640.00                   
 G1     :  3.0  G2     : 6.50  PHINT  : 49.00  P3     : 152.5  P4    :  81.5    


*SIMULATED CROP AND SOIL STATUS AT MAIN DEVELOPMENT STAGES

 RUN NO.     1     0 N check plot          

        CROP GROWTH     BIOMASS         LEAF   CROP N     STRESS      STRESS                                           
   DATE  AGE STAGE        kg/ha    LAI   NUM  kg/ha  %   H2O    N    P1    P2   RSTG                                   
 ------  --- ----------   -----  -----  ----  ---  ---  ----  ----  ----  ----  ----                                   
 13 JUN    0 Start Sim        0   0.00   0.0    0  0.0  0.00  1.00  0.00  0.00     0
 17 JUN    0 Sowing           0   0.00   0.0    0  0.0  0.00  1.00  0.00  0.00     8
 18 JUN    1 Germinate        0   0.00   0.0    0  0.0  0.00  0.00  0.00  0.00     9
 22 JUN    5 Emergence        3   0.00   0.9    0  4.9  0.00  0.00  0.00  0.00     1
 12 JUL   25 End Juveni     269   0.65   9.8   12  4.5  0.00  0.00  0.00  0.00     2
 18 JUL   31 Panicle In     788   1.46  12.2   31  3.9  0.00  0.01  0.00  0.00     3
 14 AUG   58 End Lf Gro    4442   3.69  21.4   71  1.6  0.00  0.06  0.00  0.00     4
 23 AUG   67 Anthesis      5957   3.49  21.4   71  1.2  0.00  0.06  0.00  0.00     4
 28 AUG   72 End Pan Gr    7100   3.34  21.4   71  1.0  0.00  0.05  0.00  0.00     5
  4 OCT  109 Maturity     12096   2.29  21.4   98  0.8  0.00  0.21  0.00  0.00     7
  4 OCT  109 Harvest      12096   2.29  21.4   98  0.8  0.00  0.00  0.00  0.00     7


*MAIN GROWTH AND DEVELOPMENT VARIABLES

@     VARIABLE                                         SIMULATED     MEASURED
      --------                                         ---------     --------
      Panicle Initiation day (dap)                            31          -99
      Anthesis day (dap)                                      67          -99
      Physiological maturity day (dap)                       109          -99
      Yield at harvest maturity (kg [dm]/ha)                5400         5230
      Number at maturity (no/m2)                           19741          -99
      Unit wt at maturity (g [dm]/unit)                   0.0274          -99
      Number at maturity (no/unit)                        1096.7          -99
      Tops weight at maturity (kg [dm]/ha)                 12096        10770
      By-product produced (stalk) at maturity (kg[dm]/ha    6696         5540
      Leaf area index, maximum                              3.69          -99
      Harvest index at maturity                            0.446          -99
      Grain N at maturity (kg/ha)                             74         63.9
      Tops N at maturity (kg/ha)                              98         89.0
      Stem N at maturity (kg/ha)                              24         25.5
      Grain N at maturity (%)                                1.4         1.22
      Tops weight at anthesis (kg [dm]/ha)                  5792          -99
      Tops N at anthesis (kg/ha)                              71          -99
      Leaf number per stem at maturity                     21.39          -99
      Emergence day (dap)                                      5          -99


*ENVIRONMENTAL AND STRESS FACTORS

 |-----Development Phase------|-----------------Environment-----------------|----------------Stress-----------------|
                              |-----------Average-----------|---Cumulative--|         (0=Min, 1=Max Stress)         |
                         Time  Temp  Temp Solar Photop                Evapo |----Water---|--Nitrogen--|--Phosphorus-|
                         Span   Max   Min   Rad  [day]    CO2   Rain  Trans  Photo         Photo         Photo
                         days    øC    øC MJ/m2     hr    ppm     mm     mm  synth Growth  synth Growth  synth Growth
---------------------------------------------------------------------------------------------------------------------
 Emergence-End Juvenile    20  32.3  23.5  16.0  13.03  338.6   38.0   42.9  0.000  0.000  0.000  0.002  0.000  0.000
 End Juvenil-Panicle Ini    6  31.2  23.4  13.5  12.96  338.7   11.2   20.3  0.000  0.000  0.000  0.000  0.000  0.000
 Panicle Ini-End Lf Grow   27  28.8  22.2  14.0  12.79  338.8  146.4   88.0  0.000  0.000  0.000  0.060  0.000  0.000
 End Lf Grth-Beg Grn Fil   14  28.9  22.0  15.2  12.51  338.9  242.2   50.5  0.000  0.000  0.000  0.060  0.000  0.000
 Grain Filling Phase       36  29.9  21.8  18.3  12.11  339.0  153.2  160.0  0.000  0.000  0.073  0.218  0.000  0.000

 Planting to Harvest      110  30.1  22.3  16.3  12.58  338.8  614.2  396.7  0.000  0.000  0.024  0.103  0.000  0.000
---------------------------------------------------------------------------------------------------------------------

*Resource Productivity
 Growing season length: 110 days 

 Precipitation during growing season       614.2 mm[rain]
   Dry Matter Productivity                  1.97 kg[DM]/m3[rain]          =   19.7 kg[DM]/ha per mm[rain]
   Yield Productivity                       0.88 kg[grain yield]/m3[rain] =    8.8 kg[yield]/ha per mm[rain]

 Evapotranspiration during growing season  396.7 mm[ET]
   Dry Matter Productivity                  3.05 kg[DM]/m3[ET]            =   30.5 kg[DM]/ha per mm[ET]
   Yield Productivity                       1.36 kg[grain yield]/m3[ET]   =   13.6 kg[yield]/ha per mm[ET]

 Transpiration during growing season       282.0 mm[EP]
   Dry Matter Productivity                  4.29 kg[DM]/m3[EP]            =   42.9 kg[DM]/ha per mm[EP]
   Yield Productivity                       1.91 kg[grain yield]/m3[EP]   =   19.1 kg[yield]/ha per mm[EP]

 N uptake during growing season              110 kg[N uptake]/ha
   Dry Matter Productivity                 110.0 kg[DM]/kg[N uptake]
   Yield Productivity                       49.1 kg[yield]/kg[N uptake]

--------------------------------------------------------------------------------------------------------------

             Grain sorghum YIELD :     5400 kg/ha    [Dry weight] 

**************************************************************************************************************

*DSSAT Cropping System Model Ver. 4.5.1.023 -Stub         NOV 07, 2014; 01:51:49
                                                                                
*RUN   2        : 80 kg Urea-N Incorporated SGCER045 ITHY8001    2              
 MODEL          : SGCER045 - Grain sorghum                                      
 EXPERIMENT     : ITHY8001 SG ICRISAT ALFISOL N 1980 EXPT 80-1                  
 DATA PATH      :                                                               
 TREATMENT  2   : 80 kg Urea-N Incorporated SGCER045                            
                                                                                
                                                                                
 CROP           : Grain sorghum    CULTIVAR : CSH-1            ECOTYPE :IB0001  
 STARTING DATE  : JUN 13 1980                                                   
 PLANTING DATE  : JUN 17 1980        PLANTS/m2 : 18.0     ROW SPACING :  45.cm  
 WEATHER        : ITHY   1980                                                   
 SOIL           : IBSG910085     TEXTURE : -99   - Patencheru                   
 SOIL INITIAL C : DEPTH:172cm EXTR. H2O:150.8mm  NO3: 69.1kg/ha  NH4: 60.3kg/ha 
 WATER BALANCE  : RAINFED                                                       
 IRRIGATION     : NOT IRRIGATED                                                 
 NITROGEN BAL.  : SOIL-N & N-UPTAKE SIMULATION; NO N-FIXATION                   
 N-FERTILIZER   :       80 kg/ha IN     1 APPLICATIONS                          
 RESIDUE/MANURE : INITIAL :  1300 kg/ha ;       0 kg/ha IN     0 APPLICATIONS   
 ENVIRONM. OPT. : DAYL=    0.00  SRAD=    0.00  TMAX=    0.00  TMIN=    0.00    
                  RAIN=    0.00  CO2 =    0.00  DEW =    0.00  WIND=    0.00    
 SIMULATION OPT : WATER   :Y  NITROGEN:Y  N-FIX:N  PHOSPH :N  PESTS  :N         
                  PHOTO   :C  ET      :R  INFIL:S  HYDROL :R  SOM    :P         
                  CO2 338ppm  NSWIT   :1  EVAP :S  SOIL   :2                    
 MANAGEMENT OPT : PLANTING:R  IRRIG   :N  FERT :R  RESIDUE:N  HARVEST:M         
                  WEATHER :M  TILLAGE :N                                        
                                                                                
*SUMMARY OF SOIL AND GENETIC INPUT PARAMETERS                                   
                                                                                
   SOIL LOWER UPPER   SAT  EXTR  INIT   ROOT   BULK     pH    NO3    NH4    ORG 
  DEPTH LIMIT LIMIT    SW    SW    SW   DIST   DENS                          C  
   cm   cm3/cm3    cm3/cm3    cm3/cm3         g/cm3         ugN/g  ugN/g     %  
------------------------------------------------------------------------------- 
  0-  5 0.080 0.220 0.310 0.140 0.060   1.00   1.61   7.00   1.80   2.50   0.85 
  5- 15 0.085 0.220 0.310 0.135 0.060   0.95   1.61   7.00   1.80   2.50   0.70 
 15- 22 0.090 0.220 0.310 0.130 0.060   0.90   1.61   7.00   1.80   2.50   0.55 
 22- 37 0.125 0.245 0.315 0.120 0.195   0.70   1.62   7.00   4.50   3.00   0.51 
 37- 52 0.125 0.245 0.315 0.120 0.195   0.70   1.62   7.00   4.50   3.00   0.51 
 52- 67 0.150 0.230 0.290 0.080 0.210   0.50   1.64   7.00   5.00   3.50   0.63 
 67- 82 0.150 0.230 0.290 0.080 0.210   0.50   1.64   7.00   5.00   3.50   0.63 
 82-112 0.160 0.240 0.310 0.080 0.200   0.10   1.64   7.00   2.00   2.00   0.10 
112-142 0.173 0.240 0.310 0.067 0.200   0.05   1.64   7.00   0.70   1.00   0.10 
142-172 0.193 0.250 0.320 0.057 0.200   0.03   1.64   7.00   0.60   1.00   0.10 
                                                                                
TOT-172  25.9  41.0  53.2  15.1  31.5  <--cm   -  kg/ha-->   69.1   60.3  94853 
SOIL ALBEDO    : 0.13      EVAPORATION LIMIT : 6.00         MIN. FACTOR  : 1.00 
RUNOFF CURVE # :80.00      DRAINAGE RATE     : 0.30         FERT. FACTOR : 1.00 
                                                                                
 Grain sorg CULTIVAR :IB0026-CSH-1              ECOTYPE :IB0001                 
 P1     :410.0  P2O    :13.60  P2R    :  40.0  P5     :640.00                   
 G1     :  3.0  G2     : 6.50  PHINT  : 49.00  P3     : 152.5  P4    :  81.5    


*SIMULATED CROP AND SOIL STATUS AT MAIN DEVELOPMENT STAGES

 RUN NO.     2     80 kg Urea-N Incorporate

        CROP GROWTH     BIOMASS         LEAF   CROP N     STRESS      STRESS                                           
   DATE  AGE STAGE        kg/ha    LAI   NUM  kg/ha  %   H2O    N    P1    P2   RSTG                                   
 ------  --- ----------   -----  -----  ----  ---  ---  ----  ----  ----  ----  ----                                   
 13 JUN    0 Start Sim        0   0.00   0.0    0  0.0  0.00  1.00  0.00  0.00     7
 17 JUN    0 Sowing           0   0.00   0.0    0  0.0  0.00  1.00  0.00  0.00     8
 18 JUN    1 Germinate        0   0.00   0.0    0  0.0  0.00  0.00  0.00  0.00     9
 22 JUN    5 Emergence        3   0.00   0.9    0  4.9  0.00  0.00  0.00  0.00     1
 12 JUL   25 End Juveni     269   0.65   9.8   12  4.5  0.00  0.00  0.00  0.00     2
 18 JUL   31 Panicle In     788   1.46  12.2   31  3.9  0.00  0.01  0.00  0.00     3
 14 AUG   58 End Lf Gro    4442   3.69  21.4   71  1.6  0.00  0.06  0.00  0.00     4
 23 AUG   67 Anthesis      5957   3.49  21.4   71  1.2  0.00  0.06  0.00  0.00     4
 28 AUG   72 End Pan Gr    7100   3.34  21.4   71  1.0  0.00  0.05  0.00  0.00     5
  4 OCT  109 Maturity     13225   2.29  21.4  130  1.0  0.00  0.00  0.00  0.00     7
  4 OCT  109 Harvest      13225   2.29  21.4  130  1.0  0.00  0.00  0.00  0.00     7


*MAIN GROWTH AND DEVELOPMENT VARIABLES

@     VARIABLE                                         SIMULATED     MEASURED
      --------                                         ---------     --------
      Panicle Initiation day (dap)                            31          -99
      Anthesis day (dap)                                      67          -99
      Physiological maturity day (dap)                       109          -99
      Yield at harvest maturity (kg [dm]/ha)                6407         6120
      Number at maturity (no/m2)                           19741          -99
      Unit wt at maturity (g [dm]/unit)                   0.0325          -99
      Number at maturity (no/unit)                        1096.7          -99
      Tops weight at maturity (kg [dm]/ha)                 13225        11860
      By-product produced (stalk) at maturity (kg[dm]/ha    6818         5740
      Leaf area index, maximum                              3.69          -99
      Harvest index at maturity                            0.484          -99
      Grain N at maturity (kg/ha)                            104         91.0
      Tops N at maturity (kg/ha)                             130        124.0
      Stem N at maturity (kg/ha)                              25         33.2
      Grain N at maturity (%)                                1.6         1.49
      Tops weight at anthesis (kg [dm]/ha)                  5792          -99
      Tops N at anthesis (kg/ha)                              71          -99
      Leaf number per stem at maturity                     21.39          -99
      Emergence day (dap)                                      5          -99


*ENVIRONMENTAL AND STRESS FACTORS

 |-----Development Phase------|-----------------Environment-----------------|----------------Stress-----------------|
                              |-----------Average-----------|---Cumulative--|         (0=Min, 1=Max Stress)         |
                         Time  Temp  Temp Solar Photop                Evapo |----Water---|--Nitrogen--|--Phosphorus-|
                         Span   Max   Min   Rad  [day]    CO2   Rain  Trans  Photo         Photo         Photo
                         days    øC    øC MJ/m2     hr    ppm     mm     mm  synth Growth  synth Growth  synth Growth
---------------------------------------------------------------------------------------------------------------------
 Emergence-End Juvenile    20  32.3  23.5  16.0  13.03  338.6   38.0   43.9  0.000  0.000  0.000  0.002  0.000  0.000
 End Juvenil-Panicle Ini    6  31.2  23.4  13.5  12.96  338.7   11.2   20.3  0.000  0.000  0.000  0.000  0.000  0.000
 Panicle Ini-End Lf Grow   27  28.8  22.2  14.0  12.79  338.8  146.4   88.2  0.000  0.000  0.000  0.060  0.000  0.000
 End Lf Grth-Beg Grn Fil   14  28.9  22.0  15.2  12.51  338.9  242.2   50.5  0.000  0.000  0.000  0.060  0.000  0.000
 Grain Filling Phase       36  29.9  21.8  18.3  12.11  339.0  153.2  159.8  0.000  0.000  0.000  0.000  0.000  0.000

 Planting to Harvest      110  30.1  22.3  16.3  12.58  338.8  614.2  400.3  0.000  0.000  0.000  0.032  0.000  0.000
---------------------------------------------------------------------------------------------------------------------

*Resource Productivity
 Growing season length: 110 days 

 Precipitation during growing season       614.2 mm[rain]
   Dry Matter Productivity                  2.15 kg[DM]/m3[rain]          =   21.5 kg[DM]/ha per mm[rain]
   Yield Productivity                       1.04 kg[grain yield]/m3[rain] =   10.4 kg[yield]/ha per mm[rain]

 Evapotranspiration during growing season  400.3 mm[ET]
   Dry Matter Productivity                  3.30 kg[DM]/m3[ET]            =   33.0 kg[DM]/ha per mm[ET]
   Yield Productivity                       1.60 kg[grain yield]/m3[ET]   =   16.0 kg[yield]/ha per mm[ET]

 Transpiration during growing season       282.1 mm[EP]
   Dry Matter Productivity                  4.69 kg[DM]/m3[EP]            =   46.9 kg[DM]/ha per mm[EP]
   Yield Productivity                       2.27 kg[grain yield]/m3[EP]   =   22.7 kg[yield]/ha per mm[EP]

 N applied during growing season             80. kg[N applied]/ha
   Dry Matter Productivity                 165.3 kg[DM]/kg[N applied]
   Yield Productivity                       80.1 kg[yield]/kg[N applied]

 N uptake during growing season              143 kg[N uptake]/ha
   Dry Matter Productivity                  92.5 kg[DM]/kg[N uptake]
   Yield Productivity                       44.8 kg[yield]/kg[N uptake]

--------------------------------------------------------------------------------------------------------------

             Grain sorghum YIELD :     6407 kg/ha    [Dry weight] 

**************************************************************************************************************

*DSSAT Cropping System Model Ver. 4.5.1.023 -Stub         NOV 07, 2014; 01:51:49
                                                                                
*RUN   3        : 80 kg Urea-N Split Applic SGCER045 ITHY8001    3              
 MODEL          : SGCER045 - Grain sorghum                                      
 EXPERIMENT     : ITHY8001 SG ICRISAT ALFISOL N 1980 EXPT 80-1                  
 DATA PATH      :                                                               
 TREATMENT  3   : 80 kg Urea-N Split Applic SGCER045                            
                                                                                
                                                                                
 CROP           : Grain sorghum    CULTIVAR : CSH-1            ECOTYPE :IB0001  
 STARTING DATE  : JUN 13 1980                                                   
 PLANTING DATE  : JUN 17 1980        PLANTS/m2 : 18.0     ROW SPACING :  45.cm  
 WEATHER        : ITHY   1980                                                   
 SOIL           : IBSG910085     TEXTURE : -99   - Patencheru                   
 SOIL INITIAL C : DEPTH:172cm EXTR. H2O:150.8mm  NO3: 69.1kg/ha  NH4: 60.3kg/ha 
 WATER BALANCE  : RAINFED                                                       
 IRRIGATION     : NOT IRRIGATED                                                 
 NITROGEN BAL.  : SOIL-N & N-UPTAKE SIMULATION; NO N-FIXATION                   
 N-FERTILIZER   :       80 kg/ha IN     2 APPLICATIONS                          
 RESIDUE/MANURE : INITIAL :  1300 kg/ha ;       0 kg/ha IN     0 APPLICATIONS   
 ENVIRONM. OPT. : DAYL=    0.00  SRAD=    0.00  TMAX=    0.00  TMIN=    0.00    
                  RAIN=    0.00  CO2 =    0.00  DEW =    0.00  WIND=    0.00    
 SIMULATION OPT : WATER   :Y  NITROGEN:Y  N-FIX:N  PHOSPH :N  PESTS  :N         
                  PHOTO   :C  ET      :R  INFIL:S  HYDROL :R  SOM    :P         
                  CO2 338ppm  NSWIT   :1  EVAP :S  SOIL   :2                    
 MANAGEMENT OPT : PLANTING:R  IRRIG   :N  FERT :R  RESIDUE:N  HARVEST:M         
                  WEATHER :M  TILLAGE :N                                        
                                                                                
*SUMMARY OF SOIL AND GENETIC INPUT PARAMETERS                                   
                                                                                
   SOIL LOWER UPPER   SAT  EXTR  INIT   ROOT   BULK     pH    NO3    NH4    ORG 
  DEPTH LIMIT LIMIT    SW    SW    SW   DIST   DENS                          C  
   cm   cm3/cm3    cm3/cm3    cm3/cm3         g/cm3         ugN/g  ugN/g     %  
------------------------------------------------------------------------------- 
  0-  5 0.080 0.220 0.310 0.140 0.060   1.00   1.61   7.00   1.80   2.50   0.85 
  5- 15 0.085 0.220 0.310 0.135 0.060   0.95   1.61   7.00   1.80   2.50   0.70 
 15- 22 0.090 0.220 0.310 0.130 0.060   0.90   1.61   7.00   1.80   2.50   0.55 
 22- 37 0.125 0.245 0.315 0.120 0.195   0.70   1.62   7.00   4.50   3.00   0.51 
 37- 52 0.125 0.245 0.315 0.120 0.195   0.70   1.62   7.00   4.50   3.00   0.51 
 52- 67 0.150 0.230 0.290 0.080 0.210   0.50   1.64   7.00   5.00   3.50   0.63 
 67- 82 0.150 0.230 0.290 0.080 0.210   0.50   1.64   7.00   5.00   3.50   0.63 
 82-112 0.160 0.240 0.310 0.080 0.200   0.10   1.64   7.00   2.00   2.00   0.10 
112-142 0.173 0.240 0.310 0.067 0.200   0.05   1.64   7.00   0.70   1.00   0.10 
142-172 0.193 0.250 0.320 0.057 0.200   0.03   1.64   7.00   0.60   1.00   0.10 
                                                                                
TOT-172  25.9  41.0  53.2  15.1  31.5  <--cm   -  kg/ha-->   69.1   60.3  94853 
SOIL ALBEDO    : 0.13      EVAPORATION LIMIT : 6.00         MIN. FACTOR  : 1.00 
RUNOFF CURVE # :80.00      DRAINAGE RATE     : 0.30         FERT. FACTOR : 1.00 
                                                                                
 Grain sorg CULTIVAR :IB0026-CSH-1              ECOTYPE :IB0001                 
 P1     :410.0  P2O    :13.60  P2R    :  40.0  P5     :640.00                   
 G1     :  3.0  G2     : 6.50  PHINT  : 49.00  P3     : 152.5  P4    :  81.5    


*SIMULATED CROP AND SOIL STATUS AT MAIN DEVELOPMENT STAGES

 RUN NO.     3     80 kg Urea-N Split Appli

        CROP GROWTH     BIOMASS         LEAF   CROP N     STRESS      STRESS                                           
   DATE  AGE STAGE        kg/ha    LAI   NUM  kg/ha  %   H2O    N    P1    P2   RSTG                                   
 ------  --- ----------   -----  -----  ----  ---  ---  ----  ----  ----  ----  ----                                   
 13 JUN    0 Start Sim        0   0.00   0.0    0  0.0  0.00  1.00  0.00  0.00     7
 17 JUN    0 Sowing           0   0.00   0.0    0  0.0  0.00  1.00  0.00  0.00     8
 18 JUN    1 Germinate        0   0.00   0.0    0  0.0  0.00  0.00  0.00  0.00     9
 22 JUN    5 Emergence        3   0.00   0.9    0  4.9  0.00  0.00  0.00  0.00     1
 12 JUL   25 End Juveni     269   0.65   9.8   12  4.5  0.00  0.00  0.00  0.00     2
 18 JUL   31 Panicle In     788   1.46  12.2   31  3.9  0.00  0.01  0.00  0.00     3
 14 AUG   58 End Lf Gro    4442   3.69  21.4   71  1.6  0.00  0.06  0.00  0.00     4
 23 AUG   67 Anthesis      5957   3.49  21.4   71  1.2  0.00  0.06  0.00  0.00     4
 28 AUG   72 End Pan Gr    7100   3.34  21.4   71  1.0  0.00  0.05  0.00  0.00     5
  4 OCT  109 Maturity     13224   2.29  21.4  130  1.0  0.00  0.00  0.00  0.00     7
  4 OCT  109 Harvest      13224   2.29  21.4  130  1.0  0.00  0.00  0.00  0.00     7


*MAIN GROWTH AND DEVELOPMENT VARIABLES

@     VARIABLE                                         SIMULATED     MEASURED
      --------                                         ---------     --------
      Panicle Initiation day (dap)                            31          -99
      Anthesis day (dap)                                      67          -99
      Physiological maturity day (dap)                       109          -99
      Yield at harvest maturity (kg [dm]/ha)                6407         6570
      Number at maturity (no/m2)                           19741          -99
      Unit wt at maturity (g [dm]/unit)                   0.0325          -99
      Number at maturity (no/unit)                        1096.7          -99
      Tops weight at maturity (kg [dm]/ha)                 13224        12440
      By-product produced (stalk) at maturity (kg[dm]/ha    6818         5870
      Leaf area index, maximum                              3.69          -99
      Harvest index at maturity                            0.484          -99
      Grain N at maturity (kg/ha)                            104         93.2
      Tops N at maturity (kg/ha)                             130        127.0
      Stem N at maturity (kg/ha)                              25         33.8
      Grain N at maturity (%)                                1.6         1.42
      Tops weight at anthesis (kg [dm]/ha)                  5792          -99
      Tops N at anthesis (kg/ha)                              71          -99
      Leaf number per stem at maturity                     21.39          -99
      Emergence day (dap)                                      5          -99


*ENVIRONMENTAL AND STRESS FACTORS

 |-----Development Phase------|-----------------Environment-----------------|----------------Stress-----------------|
                              |-----------Average-----------|---Cumulative--|         (0=Min, 1=Max Stress)         |
                         Time  Temp  Temp Solar Photop                Evapo |----Water---|--Nitrogen--|--Phosphorus-|
                         Span   Max   Min   Rad  [day]    CO2   Rain  Trans  Photo         Photo         Photo
                         days    øC    øC MJ/m2     hr    ppm     mm     mm  synth Growth  synth Growth  synth Growth
---------------------------------------------------------------------------------------------------------------------
 Emergence-End Juvenile    20  32.3  23.5  16.0  13.03  338.6   38.0   43.9  0.000  0.000  0.000  0.002  0.000  0.000
 End Juvenil-Panicle Ini    6  31.2  23.4  13.5  12.96  338.7   11.2   20.3  0.000  0.000  0.000  0.000  0.000  0.000
 Panicle Ini-End Lf Grow   27  28.8  22.2  14.0  12.79  338.8  146.4   88.1  0.000  0.000  0.000  0.060  0.000  0.000
 End Lf Grth-Beg Grn Fil   14  28.9  22.0  15.2  12.51  338.9  242.2   50.5  0.000  0.000  0.000  0.060  0.000  0.000
 Grain Filling Phase       36  29.9  21.8  18.3  12.11  339.0  153.2  159.7  0.000  0.000  0.000  0.000  0.000  0.000

 Planting to Harvest      110  30.1  22.3  16.3  12.58  338.8  614.2  400.2  0.000  0.000  0.000  0.032  0.000  0.000
---------------------------------------------------------------------------------------------------------------------

*Resource Productivity
 Growing season length: 110 days 

 Precipitation during growing season       614.2 mm[rain]
   Dry Matter Productivity                  2.15 kg[DM]/m3[rain]          =   21.5 kg[DM]/ha per mm[rain]
   Yield Productivity                       1.04 kg[grain yield]/m3[rain] =   10.4 kg[yield]/ha per mm[rain]

 Evapotranspiration during growing season  400.2 mm[ET]
   Dry Matter Productivity                  3.30 kg[DM]/m3[ET]            =   33.0 kg[DM]/ha per mm[ET]
   Yield Productivity                       1.60 kg[grain yield]/m3[ET]   =   16.0 kg[yield]/ha per mm[ET]

 Transpiration during growing season       282.1 mm[EP]
   Dry Matter Productivity                  4.69 kg[DM]/m3[EP]            =   46.9 kg[DM]/ha per mm[EP]
   Yield Productivity                       2.27 kg[grain yield]/m3[EP]   =   22.7 kg[yield]/ha per mm[EP]

 N applied during growing season             80. kg[N applied]/ha
   Dry Matter Productivity                 165.3 kg[DM]/kg[N applied]
   Yield Productivity                       80.1 kg[yield]/kg[N applied]

 N uptake during growing season              143 kg[N uptake]/ha
   Dry Matter Productivity                  92.5 kg[DM]/kg[N uptake]
   Yield Productivity                       44.8 kg[yield]/kg[N uptake]

--------------------------------------------------------------------------------------------------------------

             Grain sorghum YIELD :     6407 kg/ha    [Dry weight] 

**************************************************************************************************************
