*WATER BALANCE OUTPUT FILE

*DSSAT Cropping System Model Ver. 4.5.1.023 -Stub         DEC 04, 2014; 01:35:57
                                                                                
*RUN   1        : 0 N check plot            SGCER045 ITHY8001    1              
 MODEL          : SGCER045 - Grain sorghum                                      
 EXPERIMENT     : ITHY8001 SG ICRISAT ALFISOL N 1980 EXPT 80-1                  
 DATA PATH      :                                                               
 TREATMENT  1   : 0 N check plot            SGCER045                            
  

!     WATER BALANCE PARAMETERS
!     ========================                 --mm--

!     Soil H20 (start) on Year/day 1980/165    279.80
!     Soil H20 (final) on Year/day 1980/278    349.84
!     Effective Irrigation                       0.00
!     Precipitation                            650.00
!     Water added with new mulch                 0.00
!     Drainage                                   9.72
!     Tiledrain flow                             0.00
!     Runoff                                   167.08
!     Mulch evaporation                          0.00
!     Soil Evaporation                         121.15
!     Transpiration                            282.02
!     Potential ET                             472.15

!     Initial mulch water content                0.00
!     Final mulch water content                  0.00

!     Final Balance                             0.000


*DSSAT Cropping System Model Ver. 4.5.1.023 -Stub         DEC 04, 2014; 01:35:57
                                                                                
*RUN   2        : 80 kg Urea-N Incorporated SGCER045 ITHY8001    2              
 MODEL          : SGCER045 - Grain sorghum                                      
 EXPERIMENT     : ITHY8001 SG ICRISAT ALFISOL N 1980 EXPT 80-1                  
 DATA PATH      :                                                               
 TREATMENT  2   : 80 kg Urea-N Incorporated SGCER045                            
  

!     WATER BALANCE PARAMETERS
!     ========================                 --mm--

!     Soil H20 (start) on Year/day 1980/165    320.30
!     Soil H20 (final) on Year/day 1980/278    350.96
!     Effective Irrigation                       0.00
!     Precipitation                            650.00
!     Water added with new mulch                 0.00
!     Drainage                                  45.41
!     Tiledrain flow                             0.00
!     Runoff                                   167.15
!     Mulch evaporation                          0.00
!     Soil Evaporation                         124.69
!     Transpiration                            282.10
!     Potential ET                             472.23

!     Initial mulch water content                0.00
!     Final mulch water content                  0.00

!     Final Balance                             0.002


*DSSAT Cropping System Model Ver. 4.5.1.023 -Stub         DEC 04, 2014; 01:35:57
                                                                                
*RUN   3        : 80 kg Urea-N Split Applic SGCER045 ITHY8001    3              
 MODEL          : SGCER045 - Grain sorghum                                      
 EXPERIMENT     : ITHY8001 SG ICRISAT ALFISOL N 1980 EXPT 80-1                  
 DATA PATH      :                                                               
 TREATMENT  3   : 80 kg Urea-N Split Applic SGCER045                            
  

!     WATER BALANCE PARAMETERS
!     ========================                 --mm--

!     Soil H20 (start) on Year/day 1980/165    320.30
!     Soil H20 (final) on Year/day 1980/278    351.02
!     Effective Irrigation                       0.00
!     Precipitation                            650.00
!     Water added with new mulch                 0.00
!     Drainage                                  45.39
!     Tiledrain flow                             0.00
!     Runoff                                   167.16
!     Mulch evaporation                          0.00
!     Soil Evaporation                         124.64
!     Transpiration                            282.09
!     Potential ET                             472.22

!     Initial mulch water content                0.00
!     Final mulch water content                  0.00

!     Final Balance                             0.000

