*Soil Inorganic Nitrogen daily output file

*DSSAT Cropping System Model Ver. 4.5.1.023 -Stub         NOV 07, 2014; 01:51:49
                                                                                
*RUN   1        : 0 N check plot            SGCER045 ITHY8001    1              
 MODEL          : SGCER045 - Grain sorghum                                      
 EXPERIMENT     : ITHY8001 SG ICRISAT ALFISOL N 1980 EXPT 80-1                  
 DATA PATH      :                                                               
 TREATMENT  1   : 0 N check plot            SGCER045                            
  
!                                                            NO3 (ppm) by soil depth (cm):                                                   NH4 (ppm) by soil depth (cm):
!                                                            0-5    5-15   15-22   22-37   37-52   52-67   67-82  82-112 112-142 142-172     0-5    5-15   15-22   22-37   37-52   52-67   67-82  82-112 112-142 142-172
@YEAR DOY   DAS  NAPC  NI#M    NLCC   NIAD   NITD   NHTD    NI1D    NI2D    NI3D    NI4D    NI5D    NI6D    NI7D    NI8D    NI9D    NI10    NH1D    NH2D    NH3D    NH4D    NH5D    NH6D    NH7D    NH8D    NH9D    NH10    NMNC    NITC    NDNC    NIMC    AMLC   NNMNC    NUCM
 1980 164     0     0     0     0.0  142.0   76.5   65.5    2.80    3.80    4.80    4.50    4.50    5.00    5.00    2.00    0.70    0.60    4.50    4.00    3.50    3.00    3.00    3.50    3.50    2.00    1.00    1.00    0.00    0.00    0.00    0.00    0.00    0.00    0.00
 1980 165     1     0     0     0.0  142.0   88.4   53.6    7.28    4.89    6.76    4.91    4.88    5.41    5.38    2.05    0.72    0.62    0.00    2.91    1.54    2.59    2.62    3.09    3.12    1.95    0.98    0.98    0.10   11.93    0.00    0.10    0.00    0.00    0.00
 1980 166     2     0     0     0.0  142.0   94.3   47.7    7.34    5.62    7.55    5.25    5.20    5.75    5.72    2.10    0.75    0.65    0.00    2.16    0.73    2.25    2.30    2.75    2.79    1.90    0.95    0.95    0.19   17.80    0.00    0.19    0.00    0.00    0.00
 1980 167     3     0     0     0.0  141.9   98.8   43.2    2.16    7.01   10.36    5.54    5.47    6.05    6.01    2.15    0.77    0.67    0.00    1.63    0.36    1.96    2.03    2.45    2.50    1.85    0.93    0.93    0.43   22.34    0.00    0.48    0.00   -0.05    0.00
 1980 168     4     0     0     0.0  141.8  102.2   39.6    1.90    5.65    9.15    7.85    5.66    6.28    6.12    2.17    0.79    0.69    0.00    1.37    0.14    1.72    1.79    2.18    2.24    1.81    0.91    0.91    0.87   25.81    0.00    1.02    0.00   -0.15    0.00
 1980 169     5     0     0     0.0  141.8  105.0   36.7    2.49    5.48    9.05    8.35    5.82    6.48    6.24    2.20    0.81    0.71    0.00    1.21    0.12    1.51    1.58    1.95    2.00    1.76    0.89    0.89    1.27   28.65    0.00    1.49    0.00   -0.22    0.00
 1980 170     6     0     0     0.0  141.7  107.5   34.2    3.84    5.46    8.68    8.82    5.91    6.61    6.22    2.21    0.82    0.72    0.00    1.01    0.11    1.35    1.41    1.75    1.80    1.72    0.87    0.87    1.71   31.15    0.00    1.98    0.00   -0.28    0.00
 1980 171     7     0     0     0.0  141.6  109.8   31.8    5.41    5.61    8.63    9.00    5.98    6.71    6.16    2.21    0.84    0.74    0.00    0.80    0.09    1.20    1.26    1.57    1.62    1.68    0.85    0.85    2.16   33.51    0.00    2.50    0.00   -0.34    0.00
 1980 172     8     0     0     0.0  141.6  112.1   29.5    7.07    5.86    8.75    9.01    6.04    6.78    6.09    2.22    0.85    0.76    0.00    0.55    0.06    1.06    1.12    1.40    1.46    1.63    0.83    0.83    2.58   35.75    0.00    2.98    0.00   -0.39    0.00
 1980 173     9     0     0     0.0  141.5  114.0   27.5    8.85    6.04    8.96    8.95    6.08    6.82    6.01    2.22    0.87    0.77    0.00    0.37    0.05    0.94    1.00    1.26    1.31    1.59    0.81    0.81    2.97   37.76    0.00    3.40    0.00   -0.44    0.00
 1980 174    10     0     0     0.0  141.5  115.9   25.6   10.72    6.17    9.13    8.89    6.11    6.85    5.93    2.23    0.88    0.79    0.00    0.24    0.03    0.83    0.88    1.11    1.16    1.55    0.79    0.79    3.32   39.65    0.00    3.79    0.00   -0.47    0.00
 1980 175    11     0     0     0.0  141.5  117.6   23.8   10.78    6.22    9.14    8.99    6.22    6.99    6.06    2.27    0.90    0.81    0.00    0.14    0.02    0.72    0.77    0.98    1.03    1.51    0.77    0.77    3.67   41.39    0.00    4.17    0.00   -0.50    0.00
 1980 176    12     0     0     0.0  141.4  119.1   22.3   10.85    6.24    9.14    9.08    6.32    7.10    6.18    2.31    0.92    0.82    0.00    0.08    0.02    0.62    0.67    0.87    0.91    1.47    0.75    0.75    4.00   42.92    0.00    4.51    0.00   -0.51    0.01
 1980 177    13     0     0     0.0  141.4  120.4   21.0   10.92    6.24    9.13    9.16    6.40    7.20    6.28    2.35    0.94    0.84    0.00    0.04    0.02    0.54    0.58    0.76    0.81    1.43    0.73    0.74    4.31   44.28    0.00    4.83    0.00   -0.52    0.05
 1980 178    14     0     0     0.0  141.4  121.5   19.8   10.99    6.21    9.12    9.22    6.47    7.29    6.37    2.39    0.96    0.86    0.00    0.02    0.02    0.48    0.51    0.68    0.72    1.39    0.72    0.72    4.59   45.43    0.00    5.10    0.00   -0.51    0.10
 1980 179    15     0     0     0.0  141.3  122.5   18.8   11.02    6.18    9.11    9.26    6.53    7.36    6.44    2.42    0.98    0.88    0.00    0.01    0.02    0.42    0.45    0.60    0.65    1.36    0.70    0.70    4.93   46.47    0.00    5.45    0.00   -0.52    0.19
 1980 180    16     0     0     0.0  141.1  123.2   17.9   11.05    6.14    9.08    9.30    6.58    7.43    6.51    2.46    0.99    0.89    0.00    0.00    0.02    0.37    0.40    0.54    0.58    1.32    0.68    0.69    5.25   47.41    0.00    5.77    0.00   -0.52    0.32
 1980 181    17     0     0     0.0  141.0  124.0   17.0   11.09    6.10    9.06    9.33    6.63    7.49    6.57    2.49    1.01    0.91    0.00    0.00    0.02    0.33    0.35    0.48    0.51    1.29    0.67    0.67    5.55   48.29    0.00    6.05    0.00   -0.50    0.42
 1980 182    18     0     0     0.0  140.9  124.7   16.3   11.12    6.06    9.04    9.35    6.67    7.54    6.63    2.52    1.03    0.93    0.00    0.00    0.02    0.29    0.31    0.42    0.46    1.26    0.65    0.65    5.83   49.09    0.00    6.31    0.00   -0.48    0.55
 1980 183    19     0     0     0.0  140.9  125.3   15.5    4.14    8.35   10.26    9.57    6.70    7.59    6.68    2.56    1.04    0.94    0.00    0.00    0.02    0.26    0.27    0.38    0.41    1.22    0.64    0.64    6.10   49.85    0.00    6.55    0.00   -0.45    0.66
 1980 184    20     0     0     0.0  140.8  125.9   14.9    4.29    7.82   10.80    9.93    6.68    7.56    6.59    2.57    1.05    0.95    0.01    0.00    0.03    0.23    0.24    0.33    0.37    1.19    0.62    0.62    6.38   50.53    0.00    6.80    0.00   -0.42    0.79
 1980 185    21     0     1     0.0  140.7  126.4   14.3    4.18    7.47   10.81   10.36    6.68    7.56    6.55    2.59    1.07    0.97    0.02    0.00    0.03    0.21    0.21    0.30    0.33    1.16    0.61    0.61    6.63   51.16    0.00    7.01    0.00   -0.38    0.87
 1980 186    22     0     1     0.0  140.6  126.8   13.8    4.83    6.94    9.88   11.14    6.66    7.53    6.48    2.60    1.08    0.98    0.02    0.01    0.03    0.19    0.19    0.27    0.30    1.13    0.59    0.59    6.87   51.71    0.00    7.21    0.00   -0.34    1.04
 1980 187    23     0     1     0.0  139.7  126.4   13.3    6.65    6.56    9.44   11.21    6.58    7.43    6.27    2.58    1.08    0.99    0.02    0.01    0.04    0.17    0.17    0.24    0.27    1.11    0.58    0.58    7.15   52.21    0.00    7.44    0.00   -0.29    1.94
 1980 188    24     0     1     0.0  138.9  126.0   12.9    8.42    6.38    9.35   11.02    6.51    7.32    6.07    2.57    1.09    0.99    0.01    0.02    0.04    0.16    0.16    0.22    0.24    1.08    0.57    0.57    7.42   52.70    0.02    7.66    0.00   -0.24    2.82
 1980 189    25     0     1     0.0  138.1  125.6   12.5    9.91    6.38    9.32   10.77    6.43    7.20    5.89    2.55    1.09    1.00    0.00    0.03    0.04    0.15    0.14    0.20    0.22    1.06    0.55    0.56    7.68   53.17    0.02    7.87    0.00   -0.19    3.63
 1980 190    26     0     1     0.0  137.0  124.9   12.1   11.47    6.24    9.19   10.48    6.35    7.09    5.72    2.54    1.10    1.01    0.00    0.03    0.03    0.14    0.13    0.18    0.20    1.03    0.54    0.54    7.95   53.64    0.02    8.09    0.00   -0.13    4.82
 1980 191    27     0     1     0.0  136.0  124.3   11.7   11.27    6.07    8.98   10.35    6.37    7.11    5.74    2.57    1.11    1.02    0.00    0.04    0.03    0.13    0.11    0.16    0.18    1.00    0.53    0.53    8.22   54.10    0.02    8.29    0.00   -0.07    5.89
 1980 192    28     0     1     0.0  134.5  123.3   11.3   10.94    5.86    8.69   10.15    6.38    7.12    5.76    2.59    1.13    1.03    0.01    0.04    0.02    0.12    0.10    0.14    0.16    0.98    0.52    0.52    8.48   54.56    0.02    8.48    0.00    0.00    7.40
 1980 193    29     0     1     0.0  133.1  122.1   10.9   10.62    5.64    8.40    9.93    6.39    7.14    5.77    2.62    1.14    1.05    0.01    0.04    0.02    0.11    0.09    0.13    0.14    0.95    0.51    0.51    8.71   54.99    0.02    8.64    0.00    0.07    8.95
 1980 194    30     0     1     0.0  131.8  121.2   10.6    9.67    5.81    8.16    9.74    6.40    7.15    5.78    2.64    1.15    1.06    0.01    0.05    0.02    0.11    0.08    0.11    0.13    0.93    0.49    0.49    8.95   55.39    0.02    8.81    0.00    0.14   10.27
 1980 195    31     0     1     0.0  129.3  119.0   10.3    8.98    5.53    7.69    9.34    6.41    7.16    5.80    2.66    1.16    1.07    0.02    0.05    0.02    0.10    0.07    0.10    0.12    0.91    0.48    0.48    9.20   55.77    0.02    8.98    0.00    0.22   12.85
 1980 196    32     0     1     0.0  126.8  116.8   10.0    8.49    5.62    7.26    8.91    6.36    7.10    5.71    2.66    1.17    1.08    0.02    0.06    0.02    0.10    0.06    0.09    0.10    0.88    0.47    0.47    9.43   56.15    0.02    9.13    0.00    0.30   15.40
 1980 197    33     0     1     0.0  121.8  112.1    9.7    8.23    5.04    6.43    8.08    6.29    7.00    5.58    2.66    1.18    1.08    0.03    0.06    0.02    0.09    0.06    0.08    0.09    0.86    0.46    0.46    9.64   56.50    0.02    9.27    0.00    0.37   20.53
 1980 198    34     0     1     0.0  121.9  112.4    9.5    8.65    5.10    6.43    8.09    6.27    6.97    5.54    2.67    1.18    1.09    0.03    0.06    0.02    0.09    0.05    0.08    0.09    0.84    0.45    0.45    9.86   56.84    0.02    9.41    0.00    0.45   20.53
 1980 199    35     0     1     0.0  121.4  112.2    9.2    8.99    5.05    6.35    8.01    6.25    6.94    5.50    2.68    1.19    1.10    0.02    0.06    0.02    0.09    0.04    0.07    0.08    0.82    0.44    0.44   10.06   57.18    0.02    9.53    0.00    0.53   21.07
 1980 200    36     0     1     0.0  115.9  106.9    9.0    7.62    4.28    5.43    7.12    6.25    6.95    5.51    2.69    1.20    1.11    0.02    0.07    0.02    0.08    0.04    0.06    0.07    0.80    0.43    0.43   10.24   57.50    0.02    9.63    0.00    0.60   26.69
 1980 201    37     0     1     0.0  110.0  101.3    8.7    6.20    3.49    4.47    6.16    6.25    6.95    5.51    2.71    1.21    1.12    0.02    0.07    0.01    0.08    0.04    0.06    0.06    0.78    0.42    0.42   10.39   57.81    0.02    9.72    0.00    0.67   32.60
 1980 202    38     0     1     0.0  105.7   97.3    8.5    5.21    2.91    3.85    5.41    6.26    6.96    5.52    2.73    1.22    1.13    0.01    0.06    0.01    0.07    0.03    0.05    0.06    0.77    0.41    0.41   10.52   58.10    0.02    9.78    0.00    0.74   36.95
 1980 203    39     0     1     0.0  105.8   97.5    8.3    5.27    2.91    3.86    5.42    6.26    6.96    5.52    2.75    1.23    1.14    0.02    0.06    0.01    0.07    0.03    0.05    0.05    0.75    0.40    0.40   10.65   58.39    0.02    9.85    0.00    0.80   36.95
 1980 204    40     0     1     0.0  102.7   94.7    8.0    2.91    3.31    3.46    4.85    6.26    6.96    5.53    2.77    1.24    1.15    0.02    0.06    0.01    0.07    0.03    0.04    0.05    0.73    0.39    0.39   10.77   58.67    0.02    9.91    0.00    0.86   40.12
 1980 205    41     0     1     0.0   97.8   89.9    7.9    1.12    2.31    3.92    4.02    6.23    6.92    5.48    2.77    1.25    1.16    0.06    0.06    0.01    0.06    0.02    0.04    0.04    0.71    0.39    0.39   10.95   58.93    0.02    9.99    0.00    0.96   45.13
 1980 206    42     0     1     0.0   97.9   90.2    7.7    1.06    2.23    4.14    4.07    6.22    6.91    5.46    2.78    1.25    1.16    0.08    0.08    0.02    0.06    0.02    0.03    0.04    0.70    0.38    0.38   11.14   59.18    0.02   10.07    0.00    1.07   45.13
 1980 207    43     0     1     0.0   96.6   89.0    7.6    0.66    1.76    3.78    4.20    6.21    6.90    5.45    2.80    1.26    1.17    0.09    0.10    0.02    0.06    0.02    0.03    0.04    0.68    0.37    0.37   11.32   59.43    0.02   10.15    0.00    1.18   46.49
 1980 208    44     0     1     0.0   95.8   88.3    7.5    0.44    1.40    3.00    4.55    6.21    6.89    5.44    2.81    1.27    1.18    0.10    0.12    0.03    0.06    0.02    0.03    0.03    0.66    0.36    0.36   11.49   59.66    0.02   10.21    0.00    1.28   47.42
 1980 209    45     0     1     0.0   91.0   83.7    7.4    0.34    0.95    2.01    3.41    6.19    6.88    5.42    2.82    1.28    1.19    0.11    0.14    0.04    0.06    0.02    0.03    0.03    0.65    0.35    0.35   11.66   59.88    0.02   10.27    0.00    1.39   52.32
 1980 210    46     0     1     0.0   90.5   83.3    7.2    0.34    0.86    1.85    3.36    6.19    6.87    5.41    2.83    1.28    1.19    0.12    0.15    0.04    0.07    0.02    0.02    0.03    0.64    0.35    0.35   11.83   60.10    0.03   10.33    0.00    1.50   52.92
 1980 211    47     0     1     0.0   86.4   79.3    7.1    0.30    0.48    1.02    2.41    6.17    6.84    5.38    2.84    1.29    1.20    0.12    0.16    0.04    0.07    0.01    0.02    0.03    0.62    0.34    0.34   12.01   60.33    0.04   10.39    0.00    1.62   57.13
 1980 212    48     0     1     0.0   83.9   76.9    7.0    0.17    0.27    0.56    1.72    6.24    6.83    5.37    2.85    1.30    1.21    0.11    0.17    0.05    0.08    0.01    0.02    0.02    0.61    0.33    0.33   12.22   60.59    0.04   10.46    0.00    1.76   59.79
 1980 213    49     0     1     0.0   82.4   75.5    6.9    0.20    0.25    0.38    1.18    6.27    6.83    5.36    2.86    1.30    1.21    0.11    0.18    0.05    0.09    0.01    0.02    0.02    0.60    0.33    0.32   12.39   60.80    0.04   10.51    0.00    1.87   61.38
 1980 214    50     0     1     0.0   81.5   74.7    6.8    0.26    0.25    0.26    0.81    6.32    6.81    5.35    2.87    1.31    1.22    0.11    0.20    0.05    0.10    0.01    0.02    0.02    0.58    0.32    0.32   12.59   61.05    0.05   10.58    0.00    2.01   62.45
 1980 215    51     0     1     0.0   81.5   74.8    6.7    0.20    0.26    0.30    0.85    6.29    6.80    5.33    2.87    1.32    1.23    0.09    0.20    0.05    0.10    0.01    0.02    0.02    0.57    0.31    0.31   12.82   61.34    0.05   10.65    0.00    2.17   62.63
 1980 216    52     0     1     0.0   81.6   75.0    6.6    0.17    0.26    0.30    0.86    6.34    6.79    5.33    2.89    1.32    1.23    0.11    0.21    0.06    0.11    0.01    0.02    0.02    0.55    0.30    0.30   13.00   61.54    0.05   10.71    0.00    2.30   62.63
 1980 217    53     0     1     0.0   81.7   75.2    6.5    0.19    0.26    0.31    0.85    6.37    6.79    5.33    2.90    1.33    1.24    0.12    0.22    0.06    0.12    0.01    0.01    0.02    0.54    0.30    0.30   13.18   61.74    0.06   10.76    0.00    2.42   62.63
 1980 218    54     0     1     0.0   77.1   70.6    6.4    0.20    0.27    0.27    0.65    4.71    6.78    5.31    2.91    1.34    1.25    0.11    0.23    0.06    0.13    0.02    0.01    0.02    0.53    0.29    0.29   13.37   61.96    0.06   10.82    0.00    2.55   67.38
 1980 219    55     0     1     0.0   77.2   70.9    6.4    0.11    0.20    0.24    0.57    4.65    7.05    5.31    2.92    1.34    1.25    0.12    0.24    0.06    0.13    0.02    0.01    0.01    0.52    0.29    0.28   13.56   62.18    0.07   10.88    0.00    2.68   67.38
 1980 220    56     0     1     0.0   74.9   68.6    6.3    0.13    0.20    0.25    0.47    3.63    7.18    5.30    2.92    1.35    1.26    0.13    0.25    0.06    0.14    0.03    0.01    0.01    0.51    0.28    0.28   13.75   62.37    0.08   10.94    0.00    2.81   69.84
 1980 221    57     0     1     0.0   75.0   68.8    6.2    0.16    0.22    0.25    0.47    3.53    7.31    5.29    2.93    1.35    1.26    0.13    0.25    0.07    0.15    0.03    0.01    0.01    0.50    0.27    0.27   13.95   62.58    0.08   11.00    0.00    2.95   69.84
 1980 222    58     0     1     0.0   71.8   65.7    6.1    0.20    0.23    0.25    0.33    2.30    7.35    5.28    2.94    1.36    1.27    0.13    0.25    0.07    0.15    0.04    0.01    0.01    0.49    0.27    0.27   14.18   62.81    0.09   11.07    0.00    3.11   73.16
 1980 223    59     0     1     0.0   72.0   66.0    6.1    0.26    0.27    0.26    0.35    2.30    7.37    5.27    2.95    1.36    1.27    0.11    0.25    0.06    0.16    0.05    0.02    0.01    0.47    0.26    0.26   14.45   63.08    0.09   11.16    0.00    3.29   73.16
 1980 224    60     0     1     0.0   72.2   66.2    6.0    0.31    0.30    0.27    0.36    2.23    7.45    5.27    2.96    1.37    1.28    0.10    0.25    0.06    0.17    0.06    0.02    0.01    0.46    0.26    0.25   14.72   63.35    0.10   11.24    0.00    3.49   73.16
 1980 225    61     0     1     0.0   72.4   66.5    5.9    0.36    0.34    0.29    0.38    2.25    7.45    5.26    2.97    1.38    1.29    0.09    0.25    0.06    0.17    0.07    0.03    0.01    0.45    0.25    0.25   15.01   63.66    0.10   11.32    0.00    3.69   73.16
 1980 226    62     0     1     0.0   68.5   62.7    5.8    0.22    0.33    0.30    0.33    1.82    6.41    5.25    2.98    1.38    1.29    0.09    0.23    0.05    0.16    0.07    0.03    0.01    0.44    0.25    0.24   15.29   63.98    0.10   11.40    0.00    3.89   77.28
 1980 227    63     0     1     0.0   67.6   61.9    5.7    0.22    0.31    0.30    0.34    1.73    6.13    5.24    2.98    1.39    1.30    0.10    0.23    0.05    0.16    0.07    0.04    0.01    0.43    0.24    0.24   15.53   64.23    0.10   11.46    0.00    4.07   78.39
 1980 228    64     0     1     0.0   67.5   61.9    5.6    0.24    0.32    0.32    0.36    1.72    6.07    5.23    2.99    1.39    1.30    0.11    0.24    0.05    0.16    0.08    0.04    0.01    0.42    0.23    0.23   15.77   64.49    0.10   11.53    0.00    4.25   78.60
 1980 229    65     0     1     0.0   67.6   62.1    5.5    0.24    0.35    0.35    0.39    1.74    6.05    5.22    3.00    1.40    1.31    0.11    0.24    0.05    0.15    0.08    0.05    0.01    0.41    0.23    0.23   16.03   64.79    0.10   11.60    0.00    4.43   78.69
 1980 230    66     0     1     0.0   67.8   62.4    5.4    0.20    0.35    0.39    0.45    1.76    6.06    5.21    3.01    1.40    1.31    0.11    0.25    0.05    0.15    0.08    0.05    0.01    0.40    0.22    0.22   16.27   65.06    0.11   11.66    0.00    4.61   78.69
 1980 231    67     0     1     0.0   68.0   62.6    5.3    0.22    0.35    0.40    0.49    1.78    6.06    5.21    3.01    1.41    1.32    0.12    0.25    0.05    0.15    0.08    0.05    0.01    0.39    0.22    0.22   16.51   65.32    0.11   11.72    0.00    4.79   78.69
 1980 232    68     0     1     0.0   68.1   62.9    5.2    0.09    0.19    0.39    0.34    1.34    5.84    6.23    3.02    1.41    1.32    0.12    0.26    0.06    0.15    0.08    0.06    0.01    0.38    0.21    0.21   16.74   65.58    0.12   11.77    0.00    4.97   78.69
 1980 233    69     0     1     0.0   68.3   63.1    5.2    0.06    0.12    0.21    0.29    0.88    3.56    5.31    4.97    1.42    1.33    0.13    0.27    0.06    0.16    0.08    0.06    0.01    0.37    0.21    0.21   16.97   65.77    0.13   11.83    0.00    5.14   78.69
 1980 234    70     0     1     0.0   68.5   63.3    5.2    0.07    0.11    0.17    0.27    0.76    2.96    4.81    5.50    1.54    1.33    0.13    0.27    0.06    0.16    0.09    0.07    0.02    0.36    0.20    0.20   17.23   65.95    0.13   11.91    0.00    5.33   78.69
 1980 235    71     0     1     0.0   68.7   63.4    5.2    0.08    0.12    0.17    0.27    0.74    2.83    4.69    5.52    1.68    1.34    0.14    0.28    0.07    0.17    0.10    0.08    0.03    0.36    0.20    0.20   17.49   66.10    0.13   11.99    0.00    5.50   78.69
 1980 236    72     0     1     0.0   68.8   63.5    5.3    0.11    0.13    0.17    0.27    0.72    2.70    4.57    5.53    1.83    1.34    0.14    0.29    0.07    0.18    0.11    0.09    0.04    0.35    0.20    0.19   17.73   66.25    0.13   12.06    0.00    5.68   78.69
 1980 237    73     0     1     0.0   68.9   63.7    5.3    0.13    0.14    0.16    0.25    0.64    2.30    4.03    5.24    2.65    1.34    0.14    0.29    0.07    0.18    0.11    0.10    0.04    0.35    0.19    0.19   17.98   66.41    0.18   12.13    0.00    5.85   78.69
 1980 238    74     0     1     0.0   69.1   63.8    5.3    0.19    0.17    0.17    0.25    0.61    2.09    3.70    5.05    2.86    1.61    0.13    0.29    0.07    0.19    0.12    0.11    0.05    0.34    0.19    0.18   18.27   66.62    0.25   12.20    0.00    6.06   78.69
 1980 239    75     0     1     0.0   69.3   64.0    5.3    0.25    0.20    0.19    0.26    0.60    2.00    3.53    4.95    2.96    1.77    0.11    0.28    0.06    0.19    0.12    0.12    0.06    0.34    0.19    0.18   18.59   66.86    0.30   12.29    0.00    6.31   78.69
 1980 240    76     0     1     0.0   69.5   64.3    5.3    0.32    0.25    0.20    0.28    0.62    2.01    3.48    4.91    2.99    1.81    0.09    0.27    0.06    0.19    0.13    0.13    0.07    0.34    0.19    0.18   18.96   67.18    0.32   12.38    0.00    6.58   78.69
 1980 241    77     0     1     0.0   69.8   64.6    5.2    0.41    0.31    0.23    0.30    0.64    2.02    3.46    4.88    3.00    1.83    0.06    0.24    0.05    0.18    0.13    0.13    0.08    0.33    0.18    0.17   19.33   67.55    0.34   12.47    0.00    6.86   78.69
 1980 242    78     0     1     0.0   70.1   65.0    5.1    0.48    0.36    0.25    0.32    0.66    2.04    3.46    4.88    3.01    1.84    0.05    0.22    0.04    0.18    0.13    0.13    0.10    0.33    0.18    0.17   19.70   67.91    0.34   12.56    0.00    7.14   78.69
 1980 243    79     0     1     0.0   70.4   65.4    5.0    0.55    0.41    0.28    0.34    0.68    2.06    3.47    4.88    3.01    1.84    0.05    0.20    0.03    0.17    0.13    0.13    0.10    0.32    0.18    0.17   20.06   68.27    0.34   12.64    0.00    7.42   78.69
 1980 244    80     0     1     0.0   70.6   65.7    4.9    0.62    0.46    0.29    0.36    0.70    2.07    3.48    4.88    3.01    1.84    0.05    0.19    0.03    0.17    0.12    0.13    0.11    0.32    0.18    0.16   20.40   68.62    0.35   12.72    0.00    7.68   78.69
 1980 245    81     0     1     0.0   70.9   66.0    4.8    0.68    0.50    0.31    0.38    0.72    2.09    3.50    4.88    3.01    1.85    0.05    0.17    0.03    0.16    0.12    0.13    0.11    0.32    0.17    0.16   20.72   68.96    0.35   12.79    0.00    7.93   78.69
 1980 246    82     0     1     0.0   71.1   66.4    4.7    0.26    0.49    0.51    0.51    0.75    2.11    3.51    4.88    3.02    1.85    0.04    0.16    0.03    0.15    0.12    0.12    0.11    0.31    0.17    0.16   21.03   69.29    0.35   12.86    0.00    8.18   78.69
 1980 247    83     0     1     0.0   71.3   66.6    4.7    0.13    0.35    0.43    0.54    0.88    2.16    3.52    4.88    3.02    1.85    0.07    0.17    0.03    0.16    0.12    0.12    0.11    0.31    0.17    0.16   21.32   69.50    0.36   12.92    0.00    8.41   78.69
 1980 248    84     0     1     0.0   71.5   66.8    4.8    0.12    0.33    0.42    0.54    0.89    2.22    3.53    4.88    3.02    1.86    0.09    0.19    0.04    0.17    0.12    0.12    0.12    0.31    0.17    0.15   21.60   69.68    0.36   12.97    0.00    8.63   78.69
 1980 249    85     0     1     0.0   71.8   66.9    4.8    0.13    0.32    0.41    0.53    0.88    2.27    3.55    4.89    3.03    1.86    0.10    0.20    0.05    0.17    0.13    0.12    0.12    0.30    0.17    0.15   21.87   69.86    0.36   13.03    0.00    8.84   78.69
 1980 250    86     0     1     0.0   69.6   64.7    4.9    0.09    0.19    0.28    0.42    0.69    1.87    3.40    4.91    3.06    1.86    0.10    0.20    0.05    0.18    0.14    0.13    0.12    0.30    0.17    0.15   22.14   70.05    0.36   13.08    0.00    9.06   81.07
 1980 251    87     0     1     0.4   66.5   61.5    4.9    0.12    0.19    0.23    0.32    0.51    1.34    2.43    4.57    3.25    2.26    0.11    0.21    0.05    0.18    0.14    0.14    0.13    0.30    0.17    0.15   22.39   70.18    0.38   13.13    0.00    9.26   84.02
 1980 252    88     0     1     1.2   63.2   58.2    5.0    0.16    0.20    0.23    0.25    0.35    0.96    1.78    4.36    3.32    2.35    0.10    0.22    0.05    0.19    0.15    0.14    0.13    0.30    0.17    0.15   22.69   70.36    0.39   13.19    0.00    9.50   86.69
 1980 253    89     0     1     1.5   61.3   56.2    5.0    0.23    0.22    0.24    0.25    0.26    0.72    1.35    4.25    3.35    2.38    0.09    0.22    0.05    0.19    0.15    0.15    0.14    0.30    0.17    0.14   23.02   70.59    0.40   13.25    0.00    9.77   88.56
 1980 254    90     0     1     1.5   60.3   55.3    5.0    0.30    0.25    0.25    0.26    0.27    0.57    1.07    4.23    3.35    2.38    0.08    0.22    0.05    0.20    0.15    0.15    0.15    0.29    0.17    0.14   23.39   70.91    0.40   13.31    0.00   10.08   89.84
 1980 255    91     0     1     1.5   59.5   54.5    4.9    0.34    0.29    0.27    0.27    0.27    0.46    0.85    4.21    3.35    2.38    0.05    0.21    0.04    0.19    0.15    0.15    0.15    0.29    0.17    0.14   23.76   71.29    0.40   13.38    0.00   10.38   90.98
 1980 256    92     0     1     1.5   58.7   53.8    4.9    0.31    0.30    0.27    0.27    0.27    0.37    0.69    4.20    3.35    2.39    0.05    0.19    0.04    0.18    0.15    0.15    0.15    0.29    0.16    0.14   24.12   71.67    0.40   13.44    0.00   10.68   92.06
 1980 257    93     0     1     1.5   58.0   53.3    4.8    0.24    0.32    0.29    0.27    0.27    0.30    0.55    4.18    3.35    2.39    0.05    0.18    0.03    0.18    0.14    0.15    0.15    0.29    0.16    0.14   24.48   72.05    0.41   13.50    0.00   10.98   92.99
 1980 258    94     0     1     1.5   57.5   52.8    4.7    0.25    0.27    0.27    0.28    0.27    0.27    0.46    4.16    3.35    2.39    0.07    0.18    0.03    0.17    0.14    0.15    0.15    0.28    0.16    0.14   24.80   72.35    0.41   13.56    0.00   11.25   93.77
 1980 259    95     0     1     1.5   57.2   52.5    4.7    0.29    0.28    0.27    0.27    0.27    0.27    0.38    4.14    3.35    2.39    0.08    0.19    0.03    0.17    0.14    0.14    0.15    0.28    0.16    0.14   25.13   72.67    0.41   13.61    0.00   11.52   94.32
 1980 260    96     0     1     1.5   56.9   52.3    4.6    0.25    0.30    0.28    0.27    0.26    0.27    0.33    4.12    3.35    2.40    0.08    0.19    0.03    0.16    0.13    0.14    0.14    0.28    0.16    0.14   25.46   73.01    0.41   13.67    0.00   11.79   94.89
 1980 261    97     0     1     1.5   56.6   52.0    4.6    0.19    0.28    0.30    0.28    0.26    0.26    0.28    4.09    3.36    2.40    0.09    0.19    0.04    0.16    0.13    0.13    0.14    0.28    0.16    0.14   25.75   73.29    0.41   13.72    0.00   12.03   95.45
 1980 262    98     0     1     1.5   56.4   51.9    4.5    0.13    0.22    0.25    0.31    0.28    0.26    0.28    4.07    3.36    2.40    0.10    0.20    0.04    0.15    0.12    0.13    0.14    0.27    0.15    0.13   26.02   73.56    0.41   13.76    0.00   12.25   95.89
 1980 263    99     0     1     1.5   56.2   51.6    4.5    0.16    0.22    0.24    0.25    0.29    0.26    0.28    4.05    3.36    2.40    0.10    0.21    0.04    0.16    0.12    0.13    0.14    0.27    0.15    0.13   26.29   73.80    0.42   13.81    0.00   12.48   96.35
 1980 264   100     0     1     1.5   56.1   51.6    4.5    0.21    0.23    0.25    0.26    0.27    0.26    0.28    4.02    3.36    2.40    0.09    0.21    0.05    0.16    0.12    0.12    0.13    0.27    0.15    0.13   26.59   74.09    0.42   13.86    0.00   12.73   96.67
 1980 265   101     0     1     1.5   56.0   51.6    4.4    0.24    0.25    0.25    0.26    0.28    0.26    0.28    4.00    3.36    2.41    0.09    0.21    0.05    0.17    0.12    0.12    0.13    0.26    0.15    0.13   26.89   74.37    0.42   13.91    0.00   12.98   96.97
 1980 266   102     0     1     1.5   56.0   51.6    4.4    0.20    0.28    0.31    0.28    0.27    0.26    0.28    3.98    3.36    2.41    0.08    0.21    0.05    0.16    0.12    0.11    0.13    0.26    0.15    0.13   27.20   74.71    0.42   13.96    0.00   13.24   97.28
 1980 267   103     0     1     1.5   55.8   51.4    4.3    0.23    0.25    0.24    0.27    0.28    0.26    0.28    3.96    3.36    2.41    0.09    0.22    0.05    0.16    0.12    0.11    0.13    0.25    0.15    0.13   27.49   74.98    0.43   14.01    0.00   13.48   97.73
 1980 268   104     0     1     1.5   55.4   51.1    4.3    0.22    0.28    0.28    0.28    0.26    0.26    0.28    3.89    3.36    2.41    0.08    0.22    0.05    0.16    0.12    0.11    0.12    0.25    0.15    0.13   27.80   75.30    0.43   14.06    0.00   13.74   98.33
 1980 269   105     0     1     1.5   54.9   50.7    4.3    0.24    0.25    0.25    0.27    0.28    0.26    0.28    3.80    3.36    2.41    0.09    0.22    0.05    0.16    0.12    0.10    0.12    0.25    0.14    0.13   28.09   75.57    0.44   14.11    0.00   13.98   99.08
 1980 270   106     0     1     1.5   54.3   50.1    4.2    0.31    0.27    0.25    0.28    0.27    0.26    0.28    3.67    3.36    2.42    0.08    0.22    0.05    0.15    0.12    0.10    0.12    0.24    0.14    0.13   28.40   75.89    0.44   14.16    0.00   14.24   99.96
 1980 271   107     0     1     1.5   53.5   49.4    4.1    0.33    0.28    0.27    0.27    0.26    0.26    0.29    3.52    3.35    2.42    0.07    0.22    0.05    0.15    0.12    0.10    0.11    0.24    0.14    0.13   28.72   76.23    0.44   14.22    0.00   14.50  101.02
 1980 272   108     0     1     1.5   52.6   48.6    4.0    0.34    0.29    0.28    0.27    0.26    0.26    0.29    3.37    3.34    2.42    0.04    0.21    0.04    0.15    0.12    0.09    0.11    0.23    0.14    0.13   29.04   76.60    0.44   14.27    0.00   14.77  102.18
 1980 273   109     0     1     1.5   51.7   47.7    3.9    0.32    0.31    0.27    0.27    0.26    0.26    0.28    3.22    3.32    2.42    0.04    0.18    0.03    0.14    0.12    0.09    0.11    0.23    0.14    0.12   29.35   76.96    0.44   14.32    0.00   15.03  103.37
 1980 274   110     0     1     1.5   50.7   46.9    3.8    0.30    0.30    0.27    0.27    0.26    0.26    0.26    3.08    3.30    2.42    0.03    0.17    0.03    0.14    0.11    0.09    0.10    0.23    0.14    0.12   29.64   77.31    0.44   14.37    0.00   15.27  104.57
 1980 275   111     0     1     1.5   49.8   46.1    3.7    0.29    0.30    0.27    0.27    0.26    0.26    0.26    2.95    3.27    2.43    0.03    0.15    0.03    0.13    0.11    0.08    0.10    0.22    0.14    0.12   29.92   77.65    0.44   14.42    0.00   15.50  105.70
 1980 276   112     0     1     1.5   48.9   45.3    3.6    0.29    0.29    0.27    0.27    0.26    0.26    0.26    2.82    3.24    2.43    0.02    0.14    0.02    0.13    0.10    0.08    0.10    0.22    0.14    0.12   30.18   77.96    0.44   14.46    0.00   15.72  106.80
 1980 277   113     0     1     1.5   48.0   44.5    3.5    0.28    0.29    0.26    0.27    0.26    0.26    0.26    2.70    3.20    2.43    0.02    0.13    0.02    0.12    0.10    0.08    0.10    0.21    0.13    0.12   30.42   78.26    0.44   14.50    0.00   15.93  107.89
 1980 278   114     0     1     1.5   47.1   43.7    3.4    0.27    0.28    0.26    0.26    0.26    0.26    0.26    2.57    3.16    2.44    0.02    0.12    0.02    0.11    0.09    0.08    0.09    0.21    0.13    0.12   30.65   78.54    0.44   14.54    0.00   16.12  108.98

*DSSAT Cropping System Model Ver. 4.5.1.023 -Stub         NOV 07, 2014; 01:51:49
                                                                                
*RUN   2        : 80 kg Urea-N Incorporated SGCER045 ITHY8001    2              
 MODEL          : SGCER045 - Grain sorghum                                      
 EXPERIMENT     : ITHY8001 SG ICRISAT ALFISOL N 1980 EXPT 80-1                  
 DATA PATH      :                                                               
 TREATMENT  2   : 80 kg Urea-N Incorporated SGCER045                            
  
!                                                            NO3 (ppm) by soil depth (cm):                                                   NH4 (ppm) by soil depth (cm):
!                                                            0-5    5-15   15-22   22-37   37-52   52-67   67-82  82-112 112-142 142-172     0-5    5-15   15-22   22-37   37-52   52-67   67-82  82-112 112-142 142-172
@YEAR DOY   DAS  NAPC  NI#M    NLCC   NIAD   NITD   NHTD    NI1D    NI2D    NI3D    NI4D    NI5D    NI6D    NI7D    NI8D    NI9D    NI10    NH1D    NH2D    NH3D    NH4D    NH5D    NH6D    NH7D    NH8D    NH9D    NH10    NMNC    NITC    NDNC    NIMC    AMLC   NNMNC    NUCM
 1980 164     0     0     0     0.0  129.4   69.1   60.3    1.80    1.80    1.80    4.50    4.50    5.00    5.00    2.00    0.70    0.60    2.50    2.50    2.50    3.00    3.00    3.50    3.50    2.00    1.00    1.00    0.00    0.00    0.00    0.00    0.00    0.00    0.00
 1980 165     1     0     0     0.0  129.5   78.9   50.6    4.29    2.51    3.29    4.96    4.93    5.47    5.45    2.06    0.73    0.63    0.00    1.79    1.01    2.55    2.57    3.04    3.06    1.94    0.97    0.97    0.26    9.83    0.00    0.20    0.00    0.06    0.00
 1980 166     2     0     0     0.0  129.5   84.5   45.0    4.32    2.97    3.85    5.32    5.29    5.86    5.83    2.12    0.76    0.65    0.00    1.32    0.44    2.19    2.22    2.65    2.69    1.88    0.95    0.95    0.51   15.42    0.00    0.38    0.00    0.12    0.00
 1980 167     3     0     0     0.0  129.6   88.8   40.7    1.26    3.89    5.42    5.62    5.58    6.19    6.15    2.17    0.78    0.68    0.00    0.98    0.20    1.89    1.93    2.33    2.37    1.83    0.92    0.92    0.90   19.81    0.00    0.75    0.00    0.15    0.00
 1980 168     4     0     0     0.0  129.6   92.2   37.3    1.10    3.15    4.99    6.98    5.79    6.44    6.32    2.20    0.80    0.70    0.00    0.82    0.08    1.64    1.69    2.06    2.10    1.78    0.90    0.90    1.48   23.23    0.00    1.33    0.00    0.15    0.00
 1980 169     5     0     0     0.0  129.6   94.9   34.6    1.43    3.08    5.06    7.32    5.97    6.64    6.46    2.24    0.82    0.72    0.00    0.72    0.07    1.44    1.49    1.83    1.88    1.73    0.87    0.88    2.02   25.96    0.00    1.85    0.00    0.17    0.00
 1980 170     6     0     0     0.0  129.6   97.3   32.4    2.19    3.08    5.07    7.65    6.08    6.76    6.48    2.25    0.84    0.74    0.00    0.61    0.07    1.29    1.33    1.65    1.69    1.69    0.85    0.86    2.57   28.30    0.00    2.37    0.00    0.20    0.00
 1980 171     7     0     0     0.0  129.6   99.4   30.2    3.20    3.21    5.29    7.76    6.21    6.85    6.45    2.26    0.86    0.76    0.00    0.48    0.06    1.15    1.19    1.48    1.52    1.64    0.83    0.84    3.15   30.49    0.00    2.92    0.00    0.23    0.00
 1980 172     8     0     0     0.0  129.7  101.5   28.2    4.28    3.44    5.56    7.80    6.28    6.92    6.40    2.27    0.87    0.77    0.00    0.33    0.05    1.02    1.06    1.33    1.37    1.60    0.81    0.82    3.70   32.56    0.00    3.43    0.00    0.27    0.00
 1980 173     9     0     0     0.0  129.7  103.4   26.4    5.47    3.63    5.84    7.80    6.33    6.97    6.35    2.28    0.89    0.79    0.00    0.23    0.04    0.91    0.94    1.19    1.23    1.56    0.79    0.80    4.21   34.46    0.00    3.88    0.00    0.32    0.00
 1980 174    10     0     0     0.0  129.8  105.2   24.6    6.74    3.80    6.10    7.79    6.38    7.01    6.28    2.29    0.90    0.80    0.00    0.15    0.03    0.80    0.83    1.06    1.10    1.52    0.77    0.78    4.68   36.29    0.00    4.30    0.00    0.38    0.00
 1980 175    11     0     0     0.0  129.9  106.9   22.9    6.79    3.84    6.11    7.90    6.49    7.14    6.42    2.33    0.92    0.82    0.00    0.09    0.02    0.70    0.72    0.93    0.97    1.47    0.75    0.75    5.16   38.03    0.00    4.71    0.00    0.46    0.00
 1980 176    12     0     0     0.0  129.9  108.5   21.5    6.83    3.85    6.12    7.99    6.59    7.26    6.54    2.38    0.94    0.85    0.00    0.06    0.02    0.61    0.63    0.82    0.86    1.43    0.73    0.73    5.62   39.59    0.00    5.09    0.00    0.54    0.01
 1980 177    13     0     0     0.0  130.0  109.8   20.2    6.87    3.85    6.12    8.07    6.67    7.36    6.64    2.42    0.96    0.87    0.00    0.04    0.02    0.53    0.55    0.72    0.76    1.39    0.71    0.71    6.06   40.98    0.00    5.43    0.00    0.63    0.05
 1980 178    14     0     0     0.0  130.0  110.9   19.1    6.91    3.84    6.11    8.13    6.74    7.45    6.73    2.46    0.98    0.88    0.00    0.03    0.02    0.47    0.48    0.64    0.68    1.35    0.69    0.70    6.46   42.17    0.00    5.73    0.00    0.73    0.10
 1980 179    15     0     0     0.0  130.0  111.9   18.2    6.93    3.82    6.10    8.17    6.80    7.52    6.81    2.49    1.00    0.90    0.00    0.02    0.02    0.42    0.43    0.58    0.61    1.31    0.67    0.68    6.92   43.23    0.00    6.10    0.00    0.82    0.19
 1980 180    16     0     0     0.0  130.0  112.7   17.3    6.94    3.80    6.08    8.20    6.85    7.59    6.88    2.53    1.02    0.92    0.00    0.02    0.02    0.38    0.38    0.52    0.55    1.27    0.66    0.66    7.36   44.21    0.00    6.43    0.00    0.92    0.32
 1980 181    17     0     0     0.0  130.0  113.5   16.5    6.96    3.78    6.07    8.24    6.90    7.65    6.94    2.57    1.04    0.94    0.00    0.02    0.02    0.34    0.34    0.46    0.50    1.24    0.64    0.64    7.77   45.12    0.00    6.74    0.00    1.03    0.42
 1980 182    18     0     0     0.0  130.0  114.2   15.8    6.98    3.76    6.05    8.26    6.94    7.70    7.00    2.60    1.05    0.95    0.00    0.03    0.02    0.31    0.30    0.42    0.45    1.21    0.62    0.63    8.16   45.97    0.00    7.02    0.00    1.15    0.55
 1980 183    19     0     0     0.0  130.0  114.9   15.1    2.61    5.20    6.80    8.42    6.98    7.75    7.05    2.63    1.07    0.97    0.00    0.03    0.02    0.28    0.27    0.38    0.41    1.17    0.61    0.61    8.55   46.78    0.00    7.28    0.00    1.27    0.66
 1980 184    20     0     0     0.0  130.0  115.5   14.5    2.70    4.89    7.16    8.67    6.97    7.74    6.99    2.65    1.08    0.98    0.01    0.03    0.03    0.25    0.24    0.34    0.37    1.14    0.59    0.60    8.93   47.50    0.00    7.54    0.00    1.40    0.79
 1980 185    21    80     1     0.0  165.1  116.1   49.0    2.64    4.69    7.15    8.87    7.07    7.74    6.97    2.67    1.10    1.00   43.52    0.04    0.03    0.23    0.22    0.31    0.34    1.11    0.58    0.58    9.28   48.16    0.00    7.76    0.00    1.52    0.87
 1980 186    22    80     1     0.0  185.2  129.1   56.0   18.66    4.39    6.56    8.52    7.94    7.73    6.92    2.68    1.11    1.01   52.83    0.04    0.04    0.23    0.20    0.29    0.31    1.08    0.56    0.57    9.60   61.24    0.00    8.06    0.00    1.54    1.04
 1980 187    23    80     1     0.0  195.0  158.2   36.9   55.59    4.32    6.44    8.37    8.17    7.64    6.75    2.67    1.11    1.02   28.28    0.67    0.04    0.22    0.18    0.27    0.29    1.06    0.55    0.55    9.95   90.73    0.00    8.49    0.00    1.47    1.94
 1980 188    24    80     1     0.0  200.2  179.7   20.6   83.17    4.42    6.56    8.32    8.09    7.54    6.57    2.66    1.12    1.02    8.11    0.86    0.07    0.21    0.17    0.25    0.27    1.03    0.54    0.54   10.30  112.89    0.02    8.87    0.00    1.43    2.82
 1980 189    25    80     1     0.0  202.9  186.1   16.8   89.59    5.71    6.66    8.24    8.02    7.46    6.42    2.65    1.13    1.03    4.00    0.79    0.07    0.20    0.16    0.23    0.25    1.01    0.53    0.53   10.64  120.09    0.02    9.24    0.00    1.40    3.63
 1980 190    26    80     1     0.0  203.6  189.1   14.5   94.42    5.73    6.74    8.14    7.94    7.37    6.28    2.64    1.13    1.04    1.82    0.70    0.06    0.18    0.15    0.21    0.23    0.98    0.51    0.52   11.00  124.28    0.02    9.64    0.00    1.35    4.82
 1980 191    27    80     1     0.0  203.6  190.6   13.0   95.65    5.85    6.70    8.12    7.94    7.39    6.31    2.67    1.15    1.05    0.81    0.56    0.04    0.17    0.14    0.19    0.21    0.96    0.50    0.50   11.35  126.80    0.02   10.01    0.00    1.34    5.89
 1980 192    28    80     1     0.0  202.7  190.7   12.0   95.39    5.92    6.64    8.08    7.93    7.41    6.33    2.69    1.16    1.06    0.29    0.43    0.03    0.16    0.13    0.18    0.20    0.93    0.49    0.49   11.70  128.38    0.02   10.34    0.00    1.36    7.40
 1980 193    29    80     1     0.0  201.4  190.1   11.4   94.50    5.94    6.57    8.03    7.90    7.42    6.35    2.72    1.17    1.08    0.15    0.33    0.03    0.16    0.12    0.16    0.18    0.91    0.48    0.48   12.03  129.32    0.02   10.64    0.00    1.39    8.95
 1980 194    30    80     1     0.0  200.3  189.5   10.8   87.10    9.23    6.51    8.00    7.88    7.42    6.37    2.74    1.18    1.09    0.06    0.26    0.03    0.15    0.12    0.15    0.17    0.88    0.46    0.47   12.35  130.05    0.02   10.94    0.00    1.42   10.27
 1980 195    31    80     1     0.0  197.9  187.5   10.4   83.65    9.89    6.38    7.90    7.81    7.40    6.39    2.77    1.20    1.10    0.00    0.21    0.02    0.14    0.11    0.14    0.16    0.86    0.45    0.45   12.69  130.58    0.02   11.26    0.00    1.42   12.85
 1980 196    32    80     1     0.0  195.4  185.3   10.0   75.44   13.30    6.27    7.77    7.69    7.32    6.32    2.77    1.20    1.11    0.00    0.17    0.02    0.14    0.10    0.13    0.15    0.84    0.44    0.44   13.01  131.06    0.02   11.58    0.00    1.43   15.40
 1980 197    33    80     1     0.0  190.3  180.6    9.7   72.31   13.19    6.03    7.51    7.46    7.17    6.20    2.77    1.21    1.12    0.00    0.13    0.02    0.13    0.10    0.12    0.14    0.82    0.43    0.43   13.30  131.50    0.02   11.85    0.00    1.46   20.53
 1980 198    34    80     1     0.0  190.3  180.9    9.4   72.52   13.32    6.02    7.50    7.45    7.15    6.17    2.78    1.22    1.13    0.00    0.11    0.02    0.13    0.09    0.12    0.13    0.80    0.42    0.42   13.61  131.91    0.02   12.13    0.00    1.48   20.53
 1980 199    35    80     1     0.0  189.8  180.7    9.1   73.26   12.93    5.98    7.47    7.42    7.12    6.14    2.79    1.23    1.13    0.00    0.09    0.02    0.12    0.09    0.11    0.12    0.78    0.41    0.41   13.90  132.29    0.02   12.39    0.00    1.51   21.07
 1980 200    36    80     1     0.0  184.3  175.4    8.9   69.84   12.28    5.72    7.24    7.21    7.02    6.10    2.81    1.24    1.14    0.00    0.07    0.02    0.12    0.09    0.11    0.12    0.76    0.40    0.40   14.16  132.65    0.02   12.60    0.00    1.55   26.69
 1980 201    37    80     1     0.0  178.4  169.8    8.6   66.34   11.62    5.46    7.00    6.98    6.89    6.04    2.83    1.25    1.15    0.00    0.06    0.02    0.11    0.08    0.10    0.11    0.74    0.39    0.39   14.39  133.01    0.02   12.78    0.00    1.61   32.60
 1980 202    38    80     1     0.0  174.1  165.8    8.4   63.87   11.14    5.26    6.83    6.81    6.79    5.98    2.85    1.26    1.16    0.00    0.05    0.01    0.11    0.08    0.10    0.11    0.72    0.38    0.38   14.61  133.35    0.02   12.92    0.00    1.68   36.95
 1980 203    39    80     1     0.0  174.2  166.1    8.1   64.01   11.08    5.26    6.84    6.81    6.80    5.99    2.87    1.27    1.17    0.00    0.05    0.01    0.10    0.08    0.09    0.10    0.70    0.37    0.37   14.82  133.68    0.02   13.07    0.00    1.75   36.95
 1980 204    40    80     1     0.0  171.1  163.2    7.9   39.11   22.30    5.13    6.71    6.69    6.73    5.94    2.89    1.28    1.18    0.00    0.04    0.01    0.10    0.07    0.09    0.10    0.68    0.36    0.36   15.05  134.00    0.02   13.24    0.00    1.81   40.12
 1980 205    41    80     1     0.0  166.2  158.5    7.7   17.96   21.74   17.49    6.91    6.46    6.56    5.80    2.89    1.28    1.19    0.02    0.03    0.01    0.09    0.07    0.08    0.10    0.67    0.36    0.36   15.30  134.31    0.02   13.40    0.00    1.90   45.13
 1980 206    42    80     1     0.0  166.3  158.8    7.5   15.97   21.13   18.77    7.45    6.45    6.56    5.79    2.91    1.29    1.20    0.05    0.03    0.02    0.09    0.07    0.08    0.09    0.65    0.35    0.35   15.54  134.59    0.02   13.53    0.00    2.01   45.13
 1980 207    43    80     1     0.0  165.0  157.7    7.4    9.98   18.47   19.79   10.37    6.39    6.52    5.75    2.92    1.30    1.21    0.08    0.03    0.02    0.09    0.06    0.08    0.09    0.63    0.34    0.34   15.77  134.86    0.02   13.65    0.00    2.13   46.49
 1980 208    44    80     1     0.0  164.2  157.0    7.2    6.45   15.53   18.54   13.24    6.94    6.48    5.73    2.93    1.31    1.21    0.10    0.03    0.03    0.09    0.06    0.08    0.09    0.62    0.33    0.33   15.99  135.12    0.02   13.74    0.00    2.24   47.42
 1980 209    45    80     1     0.0  159.4  152.3    7.1    6.16   14.05   17.52   12.97    7.11    6.30    5.57    2.94    1.31    1.22    0.11    0.04    0.03    0.09    0.06    0.07    0.08    0.60    0.32    0.32   16.19  135.35    0.05   13.83    0.00    2.37   52.32
 1980 210    46    80     1     0.0  158.7  151.7    7.0    5.98   13.29   17.02   13.13    7.51    6.28    5.55    2.95    1.32    1.23    0.12    0.05    0.04    0.10    0.06    0.07    0.08    0.59    0.32    0.32   16.40  135.57    0.28   13.91    0.00    2.49   52.92
 1980 211    47    80     1     0.0  149.7  142.8    6.9    5.84   11.43   14.42   12.11    7.89    5.98    5.29    2.96    1.33    1.23    0.12    0.05    0.04    0.10    0.06    0.07    0.08    0.58    0.31    0.31   16.61  135.80    0.41   13.99    0.00    2.62   61.92
 1980 212    48    80     1     0.0  149.8  143.0    6.8    2.99    9.27   14.14   13.81    8.71    5.98    5.29    2.97    1.33    1.24    0.12    0.06    0.04    0.11    0.06    0.07    0.08    0.57    0.30    0.30   16.85  136.06    0.49   14.08    0.00    2.77   61.92
 1980 213    49    80     1     0.0  148.9  142.1    6.7    3.01    8.64   13.56   13.59    9.28    5.95    5.26    2.98    1.34    1.24    0.13    0.07    0.04    0.11    0.06    0.07    0.08    0.56    0.30    0.30   17.06  136.28    0.79   14.16    0.00    2.91   62.67
 1980 214    50    80     1     0.0  141.1  134.5    6.6    3.02    7.49   11.51   12.24    9.56    5.81    5.02    2.98    1.34    1.25    0.13    0.08    0.04    0.11    0.07    0.07    0.08    0.54    0.29    0.29   17.31  136.55    1.00   14.24    0.00    3.07   70.35
 1980 215    51    80     1     0.0  141.2  134.7    6.5    1.77    6.37   11.27   12.93   10.07    5.92    5.02    2.99    1.35    1.26    0.12    0.09    0.04    0.12    0.07    0.07    0.08    0.53    0.29    0.28   17.59  136.84    1.09   14.33    0.00    3.26   70.35
 1980 216    52    80     1     0.0  141.1  134.7    6.5    1.39    5.66   10.25   13.13   10.61    6.18    5.02    3.00    1.36    1.26    0.14    0.10    0.05    0.12    0.08    0.07    0.07    0.52    0.28    0.28   17.82  137.06    1.35   14.40    0.00    3.42   70.35
 1980 217    53    80     1     0.0  141.0  134.6    6.4    1.40    5.30    9.83   12.83   10.92    6.52    5.02    3.01    1.36    1.27    0.16    0.11    0.05    0.13    0.08    0.07    0.07    0.51    0.27    0.27   18.04  137.28    1.60   14.46    0.00    3.58   70.35
 1980 218    54    80     1     0.0  141.0  134.7    6.3    1.35    5.05    9.52   12.63   11.12    6.84    5.02    3.02    1.37    1.27    0.16    0.12    0.05    0.13    0.09    0.07    0.07    0.50    0.27    0.27   18.27  137.51    1.79   14.53    0.00    3.74   70.35
 1980 219    55    80     1     0.0  141.0  134.7    6.3    0.62    3.05    6.30   11.16   12.18    9.58    5.68    3.03    1.37    1.28    0.17    0.13    0.05    0.13    0.09    0.07    0.07    0.49    0.26    0.26   18.50  137.74    1.97   14.59    0.00    3.91   70.35
 1980 220    56    80     1     0.0  140.8  134.6    6.2    0.68    2.88    6.06   10.74   11.97    9.76    6.23    3.04    1.38    1.29    0.18    0.14    0.05    0.14    0.10    0.08    0.07    0.48    0.26    0.25   18.73  137.94    2.32   14.65    0.00    4.08   70.35
 1980 221    57    80     1     0.0  140.7  134.5    6.2    0.72    2.76    5.80   10.40   11.77    9.87    6.77    3.05    1.38    1.29    0.18    0.15    0.05    0.14    0.10    0.09    0.08    0.47    0.25    0.25   18.97  138.15    2.61   14.71    0.00    4.26   70.35
 1980 222    58    80     1     0.0  137.6  131.5    6.2    0.79    2.54    5.15    9.49   10.87    9.41    7.07    3.60    1.39    1.30    0.18    0.16    0.05    0.14    0.11    0.09    0.08    0.46    0.25    0.24   19.24  138.40    2.83   14.78    0.00    4.46   73.43
 1980 223    59    80     1     0.0  137.7  131.6    6.1    0.89    2.53    5.05    9.35   10.76    9.40    7.32    3.63    1.39    1.30    0.16    0.17    0.05    0.15    0.11    0.10    0.09    0.45    0.24    0.24   19.55  138.69    2.95   14.85    0.00    4.70   73.43
 1980 224    60    80     1     0.0  137.8  131.8    6.1    0.97    2.51    4.87    9.11   10.51    9.22    7.40    3.98    1.40    1.31    0.15    0.18    0.05    0.15    0.11    0.11    0.10    0.44    0.24    0.23   19.86  138.97    3.11   14.92    0.00    4.94   73.43
 1980 225    61    80     1     0.0  138.0  132.0    6.0    1.07    2.56    4.86    9.09   10.46    9.16    7.50    4.00    1.40    1.31    0.13    0.18    0.05    0.15    0.12    0.12    0.11    0.43    0.23    0.23   20.19  139.27    3.18   15.00    0.00    5.19   73.43
 1980 226    62    80     1     0.0  134.3  128.4    5.9    0.78    2.44    4.80    8.78   10.01    8.81    7.33    4.00    1.41    1.32    0.13    0.17    0.04    0.15    0.12    0.12    0.11    0.42    0.23    0.22   20.51  139.62    3.20   15.07    0.00    5.44   77.32
 1980 227    63    80     1     0.0  133.5  127.7    5.9    0.76    2.33    4.78    8.79    9.89    8.74    7.27    4.00    1.41    1.32    0.14    0.18    0.04    0.15    0.12    0.12    0.11    0.41    0.22    0.22   20.82  139.92    3.20   15.14    0.00    5.68   78.39
 1980 228    64    80     1     0.0  133.5  127.8    5.8    0.79    2.27    4.76    8.88    9.87    8.73    7.26    4.01    1.42    1.33    0.16    0.19    0.04    0.14    0.12    0.13    0.12    0.40    0.22    0.21   21.12  140.23    3.20   15.20    0.00    5.92   78.59
 1980 229    65    80     1     0.0  133.7  128.0    5.7    0.70    2.22    4.79    9.01    9.85    8.72    7.25    4.02    1.42    1.33    0.15    0.19    0.04    0.14    0.11    0.13    0.12    0.39    0.21    0.21   21.44  140.58    3.21   15.27    0.00    6.16   78.69
 1980 230    66    80     1     0.0  133.9  128.3    5.6    0.55    1.99    4.70    9.24    9.96    8.73    7.26    4.03    1.43    1.34    0.16    0.20    0.04    0.14    0.11    0.13    0.12    0.38    0.21    0.20   21.75  140.90    3.21   15.34    0.00    6.41   78.69
 1980 231    67    80     1     0.0  134.1  128.6    5.5    0.56    1.89    4.51    9.31   10.10    8.73    7.26    4.03    1.43    1.34    0.17    0.21    0.05    0.13    0.11    0.12    0.12    0.37    0.20    0.20   22.04  141.22    3.27   15.40    0.00    6.64   78.69
 1980 232    68    80     1     0.0  134.3  128.8    5.4    0.21    0.84    2.04    5.89    9.12   10.44   10.14    4.92    1.44    1.34    0.18    0.22    0.05    0.14    0.10    0.12    0.12    0.37    0.20    0.19   22.33  141.52    3.32   15.46    0.00    6.87   78.69
 1980 233    69    80     1     0.0  134.5  129.0    5.4    0.11    0.42    1.00    3.76    6.78    8.54    9.44    7.27    3.03    1.35    0.19    0.23    0.05    0.14    0.11    0.13    0.13    0.36    0.19    0.19   22.59  141.72    3.35   15.52    0.00    7.07   78.69
 1980 234    70    80     1     0.0  134.6  129.2    5.5    0.11    0.33    0.75    3.14    6.05    7.91    9.14    7.55    3.84    1.50    0.19    0.24    0.06    0.15    0.12    0.14    0.13    0.36    0.19    0.18   22.85  141.88    3.36   15.57    0.00    7.28   78.69
 1980 235    71    80     1     0.0  134.8  129.3    5.5    0.13    0.30    0.68    2.94    5.88    7.81    9.10    7.40    4.11    1.68    0.20    0.25    0.06    0.16    0.12    0.14    0.14    0.36    0.19    0.18   23.09  142.02    3.37   15.62    0.00    7.47   78.69
 1980 236    72    80     1     0.0  135.0  129.4    5.6    0.17    0.30    0.66    2.79    5.68    7.68    9.03    7.31    4.30    1.88    0.20    0.26    0.06    0.16    0.13    0.15    0.14    0.35    0.19    0.17   23.33  142.16    3.41   15.67    0.00    7.66   78.69
 1980 237    73    80     1     1.2  133.6  128.0    5.6    0.21    0.30    0.61    2.53    5.13    6.94    8.30    7.21    4.57    2.55    0.20    0.26    0.06    0.17    0.13    0.16    0.15    0.35    0.19    0.17   23.57  142.31    3.75   15.72    0.00    7.85   78.69
 1980 238    74    80     1     3.0  131.8  126.1    5.6    0.28    0.33    0.60    2.40    4.83    6.52    7.86    7.09    4.71    2.79    0.18    0.26    0.06    0.17    0.14    0.16    0.16    0.35    0.19    0.17   23.85  142.53    4.00   15.77    0.00    8.08   78.69
 1980 239    75    80     1     4.1  130.8  125.1    5.6    0.38    0.36    0.62    2.35    4.69    6.31    7.61    6.99    4.76    2.93    0.15    0.25    0.06    0.18    0.14    0.17    0.16    0.35    0.19    0.17   24.17  142.80    4.17   15.84    0.00    8.34   78.69
 1980 240    76    80     1     4.6  130.5  124.9    5.6    0.48    0.40    0.66    2.37    4.70    6.25    7.52    6.91    4.75    2.99    0.13    0.25    0.05    0.17    0.15    0.17    0.17    0.35    0.19    0.17   24.53  143.12    4.25   15.90    0.00    8.63   78.69
 1980 241    77    80     1     4.9  130.5  125.0    5.5    0.61    0.46    0.71    2.40    4.71    6.26    7.52    6.84    4.72    3.02    0.09    0.23    0.04    0.17    0.14    0.18    0.17    0.34    0.19    0.16   24.90  143.51    4.29   15.97    0.00    8.93   78.69
 1980 242    78    80     1     5.0  130.6  125.2    5.4    0.71    0.52    0.75    2.43    4.73    6.27    7.53    6.81    4.71    3.04    0.08    0.21    0.04    0.17    0.14    0.18    0.17    0.34    0.18    0.16   25.26  143.92    4.31   16.03    0.00    9.22   78.69
 1980 243    79    80     1     5.0  130.9  125.6    5.3    0.81    0.57    0.80    2.46    4.75    6.29    7.53    6.80    4.71    3.05    0.07    0.19    0.03    0.16    0.14    0.17    0.16    0.34    0.18    0.16   25.61  144.31    4.32   16.10    0.00    9.51   78.69
 1980 244    80    80     1     5.0  131.2  126.0    5.2    0.90    0.62    0.84    2.49    4.77    6.31    7.54    6.80    4.70    3.05    0.07    0.17    0.03    0.16    0.14    0.17    0.16    0.33    0.18    0.16   25.95  144.69    4.33   16.15    0.00    9.79   78.69
 1980 245    81    80     1     5.0  131.4  126.3    5.1    0.99    0.66    0.88    2.52    4.79    6.33    7.55    6.80    4.70    3.05    0.06    0.16    0.03    0.15    0.13    0.16    0.16    0.33    0.18    0.16   26.27  145.06    4.34   16.21    0.00   10.06   78.69
 1980 246    82    80     1     5.0  131.7  126.7    5.0    0.38    0.65    1.07    2.74    4.81    6.34    7.55    6.80    4.70    3.06    0.06    0.15    0.03    0.15    0.13    0.16    0.15    0.33    0.18    0.15   26.57  145.41    4.35   16.26    0.00   10.31   78.69
 1980 247    83    80     1     5.0  131.9  126.9    5.0    0.19    0.47    0.80    2.42    5.26    6.60    7.56    6.80    4.70    3.06    0.10    0.16    0.03    0.14    0.12    0.15    0.15    0.32    0.18    0.15   26.86  145.65    4.36   16.31    0.00   10.55   78.69
 1980 248    84    80     1     5.0  132.1  127.1    5.0    0.17    0.44    0.74    2.27    5.19    6.91    7.58    6.80    4.70    3.06    0.12    0.18    0.04    0.15    0.13    0.15    0.14    0.32    0.18    0.15   27.14  145.85    4.36   16.35    0.00   10.79   78.69
 1980 249    85    80     1     5.0  132.4  127.3    5.1    0.19    0.42    0.72    2.18    5.05    7.04    7.74    6.81    4.70    3.07    0.14    0.19    0.04    0.16    0.13    0.16    0.14    0.32    0.18    0.15   27.41  146.02    4.37   16.40    0.00   11.01   78.69
 1980 250    86    80     1     5.0  130.2  125.1    5.1    0.13    0.29    0.51    1.67    4.11    6.56    8.56    6.96    4.73    3.09    0.14    0.20    0.05    0.16    0.14    0.16    0.14    0.31    0.18    0.15   27.67  146.22    4.37   16.44    0.00   11.23   81.07
 1980 251    87    80     1     7.4  125.0  119.8    5.2    0.16    0.26    0.44    1.44    3.46    5.57    7.36    6.90    5.00    3.35    0.15    0.21    0.05    0.17    0.14    0.17    0.14    0.31    0.18    0.15   27.91  146.35    4.38   16.48    0.00   11.44   84.15
 1980 252    88    80     1     8.7  121.0  115.8    5.2    0.23    0.26    0.40    1.27    2.99    4.91    6.61    6.83    5.13    3.49    0.14    0.21    0.05    0.17    0.15    0.17    0.15    0.31    0.18    0.15   28.20  146.55    4.42   16.52    0.00   11.68   86.98
 1980 253    89    80     1     9.3  118.0  112.8    5.2    0.32    0.27    0.38    1.15    2.67    4.49    6.14    6.76    5.18    3.55    0.13    0.21    0.05    0.18    0.15    0.18    0.16    0.30    0.18    0.15   28.52  146.79    4.45   16.57    0.00   11.95   89.65
 1980 254    90    80     1     9.3  115.6  110.4    5.2    0.38    0.29    0.37    1.07    2.46    4.23    5.81    6.70    5.18    3.55    0.11    0.21    0.05    0.18    0.16    0.19    0.16    0.30    0.18    0.15   28.88  147.12    4.46   16.62    0.00   12.26   92.36
 1980 255    91    80     1     9.3  113.3  108.2    5.1    0.45    0.30    0.37    1.01    2.28    4.00    5.48    6.64    5.17    3.55    0.07    0.19    0.04    0.18    0.16    0.18    0.15    0.29    0.18    0.15   29.25  147.56    4.46   16.68    0.00   12.57   94.98
 1980 256    92    80     1     9.3  111.3  106.3    5.0    0.48    0.32    0.35    0.95    2.13    3.81    5.20    6.60    5.17    3.55    0.07    0.18    0.04    0.17    0.15    0.18    0.15    0.29    0.18    0.15   29.60  147.97    4.47   16.73    0.00   12.87   97.23
 1980 257    93    80     1     9.3  109.3  104.4    4.9    0.38    0.38    0.35    0.89    1.97    3.60    4.91    6.55    5.17    3.56    0.06    0.17    0.03    0.17    0.15    0.17    0.15    0.28    0.18    0.15   29.95  148.37    4.47   16.78    0.00   13.17   99.60
 1980 258    94    80     1     9.3  106.6  101.7    4.9    0.35    0.34    0.33    0.82    1.77    3.34    4.54    6.48    5.17    3.56    0.09    0.17    0.03    0.16    0.15    0.17    0.15    0.28    0.18    0.14   30.29  148.69    4.48   16.83    0.00   13.46  102.58
 1980 259    95    80     1     9.3  103.6   98.8    4.8    0.33    0.31    0.31    0.74    1.57    3.05    4.15    6.39    5.16    3.56    0.11    0.18    0.03    0.16    0.14    0.17    0.14    0.27    0.18    0.14   30.62  149.03    4.48   16.88    0.00   13.74  105.83
 1980 260    96    80     1     9.3  101.4   96.7    4.7    0.29    0.33    0.31    0.68    1.42    2.85    3.86    6.32    5.16    3.56    0.10    0.17    0.03    0.15    0.14    0.16    0.14    0.27    0.18    0.14   30.95  149.40    4.48   16.93    0.00   14.02  108.27
 1980 261    97    80     1     9.3   99.3   94.6    4.7    0.20    0.31    0.32    0.64    1.29    2.64    3.57    6.25    5.15    3.57    0.12    0.17    0.04    0.15    0.13    0.16    0.14    0.26    0.17    0.14   31.25  149.70    4.48   16.98    0.00   14.28  110.69
 1980 262    98    80     1     9.3   97.0   92.4    4.6    0.15    0.23    0.28    0.61    1.17    2.42    3.27    6.17    5.15    3.57    0.13    0.18    0.04    0.14    0.13    0.15    0.14    0.26    0.17    0.14   31.52  149.97    4.49   17.02    0.00   14.51  113.20
 1980 263    99    80     1     9.3   95.0   90.4    4.6    0.19    0.23    0.24    0.51    1.10    2.22    3.00    6.09    5.14    3.57    0.14    0.19    0.04    0.15    0.12    0.15    0.13    0.25    0.17    0.14   31.80  150.22    4.49   17.06    0.00   14.74  115.40
 1980 264   100    80     1     9.3   93.4   88.8    4.6    0.25    0.25    0.26    0.46    1.00    2.05    2.77    6.02    5.14    3.57    0.13    0.20    0.05    0.16    0.12    0.14    0.13    0.25    0.17    0.14   32.11  150.52    4.49   17.10    0.00   15.01  117.31
 1980 265   101    80     1     9.3   91.9   87.3    4.6    0.29    0.27    0.26    0.41    0.93    1.90    2.57    5.95    5.13    3.57    0.13    0.20    0.05    0.16    0.12    0.14    0.13    0.25    0.17    0.14   32.42  150.81    4.50   17.15    0.00   15.27  119.06
 1980 266   102    80     1     9.3   90.3   85.8    4.5    0.22    0.29    0.31    0.39    0.83    1.75    2.36    5.88    5.13    3.57    0.12    0.20    0.05    0.16    0.12    0.13    0.12    0.24    0.17    0.13   32.75  151.15    4.50   17.20    0.00   15.55  120.91
 1980 267   103    80     1     9.3   88.1   83.6    4.5    0.26    0.25    0.25    0.33    0.71    1.57    2.09    5.77    5.12    3.57    0.13    0.21    0.05    0.16    0.12    0.13    0.12    0.24    0.17    0.13   33.04  151.43    4.50   17.24    0.00   15.80  123.37
 1980 268   104    80     1     9.3   87.1   82.7    4.4    0.25    0.29    0.28    0.33    0.65    1.47    1.96    5.71    5.12    3.58    0.12    0.21    0.05    0.15    0.13    0.13    0.12    0.23    0.17    0.13   33.37  151.77    4.51   17.29    0.00   16.08  124.67
 1980 269   105    80     1     9.3   85.2   80.8    4.4    0.29    0.25    0.25    0.29    0.57    1.31    1.74    5.60    5.11    3.58    0.13    0.22    0.05    0.15    0.13    0.12    0.11    0.23    0.17    0.13   33.67  152.06    4.51   17.33    0.00   16.34  126.83
 1980 270   106    80     1     9.3   83.5   79.2    4.3    0.33    0.27    0.26    0.28    0.49    1.16    1.56    5.49    5.09    3.58    0.11    0.22    0.05    0.15    0.13    0.12    0.11    0.22    0.17    0.13   34.00  152.40    4.52   17.38    0.00   16.62  128.74
 1980 271   107    80     1     9.3   81.8   77.6    4.2    0.35    0.28    0.27    0.27    0.42    1.03    1.39    5.36    5.07    3.58    0.10    0.21    0.05    0.15    0.13    0.12    0.11    0.22    0.16    0.13   34.33  152.77    4.52   17.43    0.00   16.91  130.73
 1980 272   108    80     1     9.3   80.3   76.2    4.1    0.38    0.31    0.27    0.27    0.37    0.91    1.26    5.24    5.04    3.58    0.06    0.19    0.04    0.15    0.12    0.12    0.10    0.22    0.16    0.13   34.67  153.19    4.52   17.48    0.00   17.19  132.59
 1980 273   109    80     1     9.3   78.9   74.9    4.0    0.37    0.30    0.27    0.27    0.33    0.83    1.13    5.14    5.01    3.58    0.05    0.17    0.03    0.14    0.12    0.11    0.10    0.21    0.16    0.13   34.99  153.57    4.52   17.52    0.00   17.47  134.26
 1980 274   110    80     1     9.3   77.5   73.6    3.9    0.35    0.30    0.27    0.27    0.29    0.75    1.02    5.03    4.98    3.58    0.04    0.15    0.03    0.14    0.12    0.11    0.10    0.21    0.16    0.13   35.29  153.93    4.52   17.57    0.00   17.72  135.89
 1980 275   111    80     1     9.3   76.5   72.7    3.8    0.35    0.29    0.27    0.27    0.27    0.70    0.94    4.95    4.95    3.58    0.04    0.14    0.03    0.13    0.11    0.11    0.10    0.21    0.16    0.13   35.58  154.28    4.52   17.61    0.00   17.97  137.09
 1980 276   112    80     1     9.3   75.2   71.5    3.7    0.31    0.29    0.26    0.27    0.26    0.63    0.84    4.84    4.90    3.58    0.03    0.13    0.02    0.13    0.11    0.11    0.09    0.20    0.15    0.13   35.84  154.60    4.52   17.65    0.00   18.20  138.68
 1980 277   113    80     1     9.3   74.0   70.4    3.6    0.29    0.29    0.26    0.27    0.26    0.57    0.76    4.74    4.86    3.58    0.02    0.12    0.02    0.12    0.11    0.10    0.09    0.20    0.15    0.12   36.09  154.91    4.52   17.69    0.00   18.41  140.09
 1980 278   114    80     1     9.3   72.8   69.3    3.5    0.26    0.28    0.26    0.26    0.26    0.51    0.67    4.63    4.81    3.58    0.02    0.11    0.02    0.12    0.10    0.10    0.09    0.19    0.15    0.12   36.32  155.20    4.52   17.72    0.00   18.60  141.49

*DSSAT Cropping System Model Ver. 4.5.1.023 -Stub         NOV 07, 2014; 01:51:49
                                                                                
*RUN   3        : 80 kg Urea-N Split Applic SGCER045 ITHY8001    3              
 MODEL          : SGCER045 - Grain sorghum                                      
 EXPERIMENT     : ITHY8001 SG ICRISAT ALFISOL N 1980 EXPT 80-1                  
 DATA PATH      :                                                               
 TREATMENT  3   : 80 kg Urea-N Split Applic SGCER045                            
  
!                                                            NO3 (ppm) by soil depth (cm):                                                   NH4 (ppm) by soil depth (cm):
!                                                            0-5    5-15   15-22   22-37   37-52   52-67   67-82  82-112 112-142 142-172     0-5    5-15   15-22   22-37   37-52   52-67   67-82  82-112 112-142 142-172
@YEAR DOY   DAS  NAPC  NI#M    NLCC   NIAD   NITD   NHTD    NI1D    NI2D    NI3D    NI4D    NI5D    NI6D    NI7D    NI8D    NI9D    NI10    NH1D    NH2D    NH3D    NH4D    NH5D    NH6D    NH7D    NH8D    NH9D    NH10    NMNC    NITC    NDNC    NIMC    AMLC   NNMNC    NUCM
 1980 164     0     0     0     0.0  129.4   69.1   60.3    1.80    1.80    1.80    4.50    4.50    5.00    5.00    2.00    0.70    0.60    2.50    2.50    2.50    3.00    3.00    3.50    3.50    2.00    1.00    1.00    0.00    0.00    0.00    0.00    0.00    0.00    0.00
 1980 165     1     0     0     0.0  129.5   78.9   50.6    4.29    2.51    3.29    4.96    4.93    5.47    5.45    2.06    0.73    0.63    0.00    1.79    1.01    2.55    2.57    3.04    3.06    1.94    0.97    0.97    0.26    9.83    0.00    0.20    0.00    0.06    0.00
 1980 166     2     0     0     0.0  129.5   84.5   45.0    4.32    2.97    3.85    5.32    5.29    5.86    5.83    2.12    0.76    0.65    0.00    1.32    0.44    2.19    2.22    2.65    2.69    1.88    0.95    0.95    0.51   15.42    0.00    0.38    0.00    0.12    0.00
 1980 167     3     0     0     0.0  129.6   88.8   40.7    1.26    3.89    5.42    5.62    5.58    6.19    6.15    2.17    0.78    0.68    0.00    0.98    0.20    1.89    1.93    2.33    2.37    1.83    0.92    0.92    0.90   19.81    0.00    0.75    0.00    0.15    0.00
 1980 168     4     0     0     0.0  129.6   92.2   37.3    1.10    3.15    4.99    6.98    5.79    6.44    6.32    2.20    0.80    0.70    0.00    0.82    0.08    1.64    1.69    2.06    2.10    1.78    0.90    0.90    1.48   23.23    0.00    1.33    0.00    0.15    0.00
 1980 169     5     0     0     0.0  129.6   94.9   34.6    1.43    3.08    5.06    7.32    5.97    6.64    6.46    2.24    0.82    0.72    0.00    0.72    0.07    1.44    1.49    1.83    1.88    1.73    0.87    0.88    2.02   25.96    0.00    1.85    0.00    0.17    0.00
 1980 170     6     0     0     0.0  129.6   97.3   32.4    2.19    3.08    5.07    7.65    6.08    6.76    6.48    2.25    0.84    0.74    0.00    0.61    0.07    1.29    1.33    1.65    1.69    1.69    0.85    0.86    2.57   28.30    0.00    2.37    0.00    0.20    0.00
 1980 171     7     0     0     0.0  129.6   99.4   30.2    3.20    3.21    5.29    7.76    6.21    6.85    6.45    2.26    0.86    0.76    0.00    0.48    0.06    1.15    1.19    1.48    1.52    1.64    0.83    0.84    3.15   30.49    0.00    2.92    0.00    0.23    0.00
 1980 172     8     0     0     0.0  129.7  101.5   28.2    4.28    3.44    5.56    7.80    6.28    6.92    6.40    2.27    0.87    0.77    0.00    0.33    0.05    1.02    1.06    1.33    1.37    1.60    0.81    0.82    3.70   32.56    0.00    3.43    0.00    0.27    0.00
 1980 173     9     0     0     0.0  129.7  103.4   26.4    5.47    3.63    5.84    7.80    6.33    6.97    6.35    2.28    0.89    0.79    0.00    0.23    0.04    0.91    0.94    1.19    1.23    1.56    0.79    0.80    4.21   34.46    0.00    3.88    0.00    0.32    0.00
 1980 174    10     0     0     0.0  129.8  105.2   24.6    6.74    3.80    6.10    7.79    6.38    7.01    6.28    2.29    0.90    0.80    0.00    0.15    0.03    0.80    0.83    1.06    1.10    1.52    0.77    0.78    4.68   36.29    0.00    4.30    0.00    0.38    0.00
 1980 175    11     0     0     0.0  129.9  106.9   22.9    6.79    3.84    6.11    7.90    6.49    7.14    6.42    2.33    0.92    0.82    0.00    0.09    0.02    0.70    0.72    0.93    0.97    1.47    0.75    0.75    5.16   38.03    0.00    4.71    0.00    0.46    0.00
 1980 176    12     0     0     0.0  129.9  108.5   21.5    6.83    3.85    6.12    7.99    6.59    7.26    6.54    2.38    0.94    0.85    0.00    0.06    0.02    0.61    0.63    0.82    0.86    1.43    0.73    0.73    5.62   39.59    0.00    5.09    0.00    0.54    0.01
 1980 177    13     0     0     0.0  130.0  109.8   20.2    6.87    3.85    6.12    8.07    6.67    7.36    6.64    2.42    0.96    0.87    0.00    0.04    0.02    0.53    0.55    0.72    0.76    1.39    0.71    0.71    6.06   40.98    0.00    5.43    0.00    0.63    0.05
 1980 178    14     0     0     0.0  130.0  110.9   19.1    6.91    3.84    6.11    8.13    6.74    7.45    6.73    2.46    0.98    0.88    0.00    0.03    0.02    0.47    0.48    0.64    0.68    1.35    0.69    0.70    6.46   42.17    0.00    5.73    0.00    0.73    0.10
 1980 179    15     0     0     0.0  130.0  111.9   18.2    6.93    3.82    6.10    8.17    6.80    7.52    6.81    2.49    1.00    0.90    0.00    0.02    0.02    0.42    0.43    0.58    0.61    1.31    0.67    0.68    6.92   43.23    0.00    6.10    0.00    0.82    0.19
 1980 180    16     0     0     0.0  130.0  112.7   17.3    6.94    3.80    6.08    8.20    6.85    7.59    6.88    2.53    1.02    0.92    0.00    0.02    0.02    0.38    0.38    0.52    0.55    1.27    0.66    0.66    7.36   44.21    0.00    6.43    0.00    0.92    0.32
 1980 181    17     0     0     0.0  130.0  113.5   16.5    6.96    3.78    6.07    8.24    6.90    7.65    6.94    2.57    1.04    0.94    0.00    0.02    0.02    0.34    0.34    0.46    0.50    1.24    0.64    0.64    7.77   45.12    0.00    6.74    0.00    1.03    0.42
 1980 182    18     0     0     0.0  130.0  114.2   15.8    6.98    3.76    6.05    8.26    6.94    7.70    7.00    2.60    1.05    0.95    0.00    0.03    0.02    0.31    0.30    0.42    0.45    1.21    0.62    0.63    8.16   45.97    0.00    7.02    0.00    1.15    0.55
 1980 183    19     0     0     0.0  130.0  114.9   15.1    2.61    5.20    6.80    8.42    6.98    7.75    7.05    2.63    1.07    0.97    0.00    0.03    0.02    0.28    0.27    0.38    0.41    1.17    0.61    0.61    8.55   46.78    0.00    7.28    0.00    1.27    0.66
 1980 184    20     0     0     0.0  130.0  115.5   14.5    2.70    4.89    7.16    8.67    6.97    7.74    6.99    2.65    1.08    0.98    0.01    0.03    0.03    0.25    0.24    0.34    0.37    1.14    0.59    0.60    8.93   47.50    0.00    7.54    0.00    1.40    0.79
 1980 185    21    40     1     0.0  147.6  116.1   31.5    2.64    4.69    7.15    8.87    7.07    7.74    6.97    2.67    1.10    1.00   21.77    0.04    0.03    0.23    0.22    0.31    0.34    1.11    0.58    0.58    9.28   48.16    0.00    7.76    0.00    1.52    0.87
 1980 186    22    40     1     0.0  157.6  122.8   34.8   10.86    4.39    6.56    8.51    7.94    7.73    6.92    2.68    1.11    1.01   26.43    0.04    0.04    0.23    0.20    0.29    0.31    1.08    0.56    0.57    9.60   54.97    0.00    8.00    0.00    1.60    1.04
 1980 187    23    40     1     0.0  162.2  137.2   25.0   29.77    4.26    6.40    8.34    8.17    7.64    6.75    2.67    1.11    1.02   14.13    0.36    0.04    0.22    0.18    0.27    0.29    1.06    0.55    0.55    9.95   69.89    0.00    8.31    0.00    1.65    1.94
 1980 188    24    40     1     0.0  164.4  147.7   16.6   43.99    4.29    6.50    8.28    8.09    7.54    6.57    2.66    1.12    1.02    4.06    0.46    0.05    0.21    0.17    0.25    0.27    1.03    0.54    0.54   10.30   81.16    0.02    8.61    0.00    1.69    2.82
 1980 189    25    40     1     0.0  165.4  150.8   14.5   47.51    4.98    6.57    8.19    8.01    7.46    6.42    2.65    1.13    1.03    1.99    0.43    0.06    0.20    0.16    0.23    0.25    1.01    0.53    0.53   10.65   85.00    0.02    8.92    0.00    1.73    3.63
 1980 190    26    40     1     0.0  165.2  152.0   13.2   50.19    4.99    6.61    8.06    7.92    7.37    6.28    2.64    1.13    1.04    0.89    0.38    0.04    0.18    0.15    0.21    0.23    0.98    0.51    0.52   11.00   87.34    0.02    9.25    0.00    1.75    4.82
 1980 191    27    40     1     0.0  164.7  152.4   12.3   50.51    5.01    6.54    8.02    7.91    7.39    6.31    2.67    1.15    1.05    0.39    0.31    0.03    0.17    0.14    0.19    0.21    0.96    0.50    0.50   11.36   88.85    0.02    9.56    0.00    1.80    5.89
 1980 192    28    40     1     0.0  163.5  151.9   11.6   49.97    4.98    6.42    7.95    7.89    7.40    6.33    2.69    1.16    1.06    0.13    0.25    0.03    0.16    0.13    0.18    0.20    0.93    0.49    0.49   11.70   89.89    0.02    9.84    0.00    1.86    7.40
 1980 193    29    40     1     0.0  162.2  151.1   11.1   49.14    4.94    6.31    7.87    7.84    7.41    6.35    2.72    1.17    1.08    0.07    0.20    0.03    0.16    0.12    0.16    0.18    0.91    0.48    0.48   12.02   90.59    0.02   10.08    0.00    1.94    8.95
 1980 194    30    40     1     0.0  161.0  150.4   10.6   45.07    6.59    6.22    7.81    7.80    7.40    6.37    2.74    1.18    1.09    0.00    0.16    0.02    0.15    0.12    0.15    0.17    0.88    0.46    0.47   12.35   91.12    0.02   10.33    0.00    2.02   10.27
 1980 195    31    40     1     0.0  158.6  148.3   10.3   42.79    6.82    6.04    7.67    7.68    7.37    6.39    2.77    1.20    1.10    0.00    0.14    0.02    0.14    0.11    0.14    0.16    0.86    0.45    0.45   12.67   91.61    0.02   10.58    0.00    2.10   12.85
 1980 196    32    40     1     0.0  156.1  146.2   10.0   38.47    8.48    5.89    7.49    7.53    7.27    6.31    2.77    1.20    1.11    0.00    0.12    0.02    0.14    0.10    0.13    0.15    0.84    0.44    0.44   12.99   92.05    0.02   10.81    0.00    2.18   15.40
 1980 197    33    40     1     0.0  151.1  141.5    9.7   36.43    8.24    5.58    7.14    7.22    7.08    6.19    2.77    1.21    1.12    0.00    0.10    0.02    0.13    0.10    0.12    0.14    0.82    0.43    0.43   13.28   92.47    0.02   11.00    0.00    2.27   20.53
 1980 198    34    80     2     0.0  170.0  160.6    9.4   60.03    8.33    5.58    7.14    7.21    7.06    6.16    2.78    1.22    1.13    0.00    0.09    0.02    0.13    0.09    0.12    0.13    0.80    0.42    0.42   13.57   92.88    0.02   11.20    0.00    2.37   20.53
 1980 199    35    80     2     0.0  179.3  170.2    9.1   72.55    8.16    5.54    7.11    7.17    7.03    6.13    2.79    1.23    1.13    0.00    0.08    0.02    0.12    0.09    0.11    0.12    0.78    0.41    0.41   13.85   93.25    0.02   11.44    0.00    2.41   21.07
 1980 200    36    80     2     0.0  179.0  170.2    8.9   75.34    7.73    5.28    6.87    6.95    6.91    6.09    2.81    1.24    1.14    0.00    0.07    0.02    0.12    0.09    0.11    0.12    0.76    0.40    0.40   14.10   93.60    0.02   11.65    0.00    2.45   26.69
 1980 201    37    80     2     0.0  175.7  167.1    8.6   74.42    7.32    5.03    6.63    6.72    6.78    6.02    2.83    1.25    1.15    0.00    0.07    0.02    0.11    0.08    0.10    0.11    0.74    0.39    0.39   14.33   93.96    0.02   11.82    0.00    2.51   32.60
 1980 202    38    80     2     0.0  172.6  164.2    8.4   72.99    7.02    4.85    6.46    6.56    6.68    5.96    2.85    1.26    1.16    0.00    0.06    0.01    0.11    0.08    0.10    0.11    0.72    0.38    0.38   14.54   94.30    0.02   11.96    0.00    2.58   36.95
 1980 203    39    80     2     0.0  173.5  165.4    8.1   74.17    7.00    4.85    6.47    6.56    6.69    5.97    2.87    1.27    1.17    0.00    0.06    0.01    0.10    0.08    0.09    0.10    0.70    0.37    0.37   14.75   94.64    0.02   12.10    0.00    2.65   36.95
 1980 204    40    80     2     0.0  171.1  163.2    7.9   46.20   20.16    4.73    6.36    6.44    6.62    5.91    2.89    1.28    1.18    0.00    0.05    0.01    0.10    0.07    0.09    0.10    0.68    0.36    0.36   14.97   94.96    0.02   12.26    0.00    2.70   40.12
 1980 205    41    80     2     0.0  166.6  158.6    7.9   20.85   21.64   17.10    6.63    6.22    6.46    5.77    2.89    1.28    1.19    0.00    0.20    0.01    0.09    0.07    0.08    0.10    0.67    0.36    0.36   15.22   95.27    0.02   12.44    0.00    2.78   45.13
 1980 206    42    80     2     0.0  166.9  158.9    7.9   18.44   21.23   18.37    7.19    6.22    6.46    5.77    2.91    1.29    1.20    0.04    0.24    0.10    0.09    0.07    0.08    0.09    0.65    0.35    0.35   15.45   95.57    0.02   12.57    0.00    2.88   45.13
 1980 207    43    80     2     0.0  165.7  157.9    7.8   11.44   18.93   19.57   10.14    6.16    6.41    5.73    2.92    1.30    1.21    0.07    0.25    0.13    0.09    0.06    0.08    0.09    0.63    0.34    0.34   15.67   95.90    0.02   12.68    0.00    2.98   46.49
 1980 208    44    80     2     0.0  165.0  157.3    7.7    7.34   16.10   18.57   13.02    6.72    6.38    5.70    2.93    1.31    1.21    0.08    0.25    0.14    0.10    0.06    0.08    0.09    0.62    0.33    0.33   15.88   96.19    0.02   12.78    0.00    3.09   47.42
 1980 209    45    80     2     0.0  160.2  152.6    7.6    6.95   14.61   17.62   12.77    6.90    6.20    5.55    2.94    1.31    1.22    0.09    0.24    0.14    0.11    0.06    0.07    0.08    0.60    0.32    0.32   16.08   96.46    0.05   12.87    0.00    3.21   52.32
 1980 210    46    80     2     0.0  159.5  152.0    7.5    6.71   13.84   17.17   12.93    7.29    6.18    5.53    2.95    1.32    1.23    0.10    0.23    0.13    0.12    0.06    0.07    0.08    0.59    0.32    0.32   16.27   96.73    0.29   12.95    0.00    3.32   52.92
 1980 211    47    80     2     0.0  150.5  143.2    7.3    6.49   11.93   14.59   11.96    7.68    5.89    5.27    2.96    1.33    1.23    0.10    0.22    0.12    0.12    0.06    0.07    0.08    0.58    0.31    0.31   16.48   97.01    0.43   13.04    0.00    3.44   61.92
 1980 212    48    80     2     0.0  150.5  143.4    7.1    3.28    9.77   14.45   13.74    8.51    5.89    5.26    2.97    1.33    1.24    0.09    0.21    0.10    0.13    0.06    0.07    0.08    0.57    0.30    0.30   16.71   97.32    0.51   13.13    0.00    3.58   61.92
 1980 213    49    80     2     0.0  149.6  142.6    7.0    3.29    9.11   13.89   13.53    9.08    5.86    5.24    2.98    1.34    1.24    0.11    0.21    0.10    0.13    0.07    0.07    0.08    0.56    0.30    0.30   16.92   97.57    0.83   13.20    0.00    3.72   62.67
 1980 214    50    80     2     0.0  141.9  135.0    6.9    3.27    7.91   11.80   12.21    9.40    5.72    5.00    2.98    1.34    1.25    0.11    0.20    0.09    0.14    0.07    0.07    0.08    0.54    0.29    0.29   17.16   97.86    1.04   13.29    0.00    3.87   70.35
 1980 215    51    80     2     0.0  142.0  135.2    6.8    1.90    6.75   11.62   12.96    9.91    5.82    4.99    2.99    1.35    1.26    0.10    0.19    0.08    0.14    0.07    0.07    0.08    0.53    0.29    0.28   17.43   98.19    1.13   13.38    0.00    4.05   70.35
 1980 216    52    80     2     0.0  141.9  135.2    6.7    1.48    6.00   10.60   13.18   10.46    6.09    5.00    3.00    1.36    1.26    0.12    0.20    0.08    0.14    0.08    0.07    0.07    0.52    0.28    0.28   17.65   98.43    1.40   13.45    0.00    4.20   70.35
 1980 217    53    80     2     0.0  141.7  135.1    6.6    1.48    5.63   10.19   12.90   10.78    6.42    5.00    3.01    1.36    1.27    0.13    0.20    0.07    0.15    0.09    0.07    0.07    0.51    0.27    0.27   17.86   98.65    1.66   13.51    0.00    4.35   70.35
 1980 218    54    80     2     0.0  141.7  135.2    6.5    1.42    5.37    9.88   12.70   10.99    6.73    5.00    3.02    1.37    1.27    0.13    0.20    0.07    0.15    0.09    0.07    0.07    0.50    0.27    0.27   18.09   98.90    1.86   13.58    0.00    4.51   70.35
 1980 219    55    80     2     0.0  141.7  135.3    6.4    0.64    3.24    6.58   11.31   12.12    9.48    5.65    3.03    1.37    1.28    0.14    0.20    0.07    0.15    0.10    0.07    0.07    0.49    0.26    0.26   18.31   99.14    2.04   13.64    0.00    4.67   70.35
 1980 220    56    80     2     0.0  141.5  135.1    6.4    0.71    3.06    6.32   10.89   11.92    9.66    6.19    3.04    1.38    1.29    0.15    0.21    0.07    0.16    0.10    0.08    0.07    0.48    0.26    0.25   18.53   99.35    2.39   13.70    0.00    4.83   70.35
 1980 221    57    80     2     0.0  141.4  135.0    6.3    0.74    2.94    6.06   10.55   11.74    9.77    6.73    3.05    1.38    1.29    0.16    0.21    0.07    0.16    0.10    0.09    0.08    0.47    0.25    0.25   18.76   99.57    2.69   13.76    0.00    5.00   70.35
 1980 222    58    80     2     0.0  138.3  132.0    6.3    0.80    2.71    5.38    9.64   10.86    9.33    7.03    3.59    1.39    1.30    0.15    0.21    0.07    0.16    0.11    0.09    0.08    0.46    0.25    0.24   19.02   99.82    2.91   13.83    0.00    5.20   73.43
 1980 223    59    80     2     0.0  138.4  132.2    6.2    0.89    2.71    5.28    9.50   10.75    9.32    7.27    3.63    1.39    1.30    0.14    0.21    0.06    0.17    0.11    0.10    0.09    0.45    0.24    0.24   19.32  100.12    3.03   13.90    0.00    5.42   73.43
 1980 224    60    80     2     0.0  138.4  132.3    6.2    0.97    2.68    5.09    9.26   10.50    9.14    7.35    3.97    1.40    1.31    0.13    0.21    0.06    0.17    0.12    0.11    0.10    0.44    0.24    0.23   19.63  100.41    3.19   13.97    0.00    5.65   73.43
 1980 225    61    80     2     0.0  138.6  132.5    6.1    1.06    2.73    5.08    9.24   10.45    9.09    7.46    4.00    1.40    1.31    0.11    0.21    0.05    0.17    0.12    0.12    0.11    0.43    0.23    0.23   19.94  100.71    3.26   14.05    0.00    5.90   73.43
 1980 226    62    80     2     0.0  135.0  129.0    6.0    0.77    2.59    5.02    8.94   10.01    8.75    7.29    3.99    1.41    1.32    0.11    0.19    0.04    0.17    0.12    0.12    0.11    0.42    0.23    0.22   20.26  101.07    3.28   14.12    0.00    6.14   77.32
 1980 227    63    80     2     0.0  134.1  128.2    5.9    0.75    2.48    5.01    8.94    9.88    8.67    7.23    4.00    1.41    1.32    0.13    0.20    0.04    0.16    0.12    0.12    0.11    0.41    0.22    0.22   20.56  101.38    3.28   14.19    0.00    6.37   78.39
 1980 228    64    80     2     0.0  134.1  128.3    5.8    0.78    2.41    4.98    9.04    9.86    8.66    7.22    4.00    1.42    1.33    0.14    0.20    0.04    0.16    0.12    0.13    0.12    0.40    0.22    0.21   20.86  101.69    3.29   14.26    0.00    6.60   78.59
 1980 229    65    80     2     0.0  134.3  128.6    5.7    0.69    2.35    5.02    9.18    9.85    8.66    7.21    4.01    1.42    1.33    0.13    0.21    0.04    0.15    0.11    0.13    0.12    0.39    0.21    0.21   21.17  102.04    3.29   14.32    0.00    6.84   78.69
 1980 230    66    80     2     0.0  134.5  128.9    5.6    0.53    2.10    4.92    9.42    9.96    8.66    7.22    4.02    1.43    1.34    0.14    0.21    0.04    0.15    0.11    0.13    0.12    0.38    0.21    0.20   21.47  102.36    3.29   14.39    0.00    7.08   78.69
 1980 231    67    80     2     0.0  134.7  129.1    5.5    0.55    1.99    4.72    9.49   10.11    8.67    7.22    4.03    1.43    1.34    0.15    0.22    0.05    0.15    0.11    0.12    0.12    0.37    0.20    0.20   21.76  102.67    3.35   14.45    0.00    7.30   78.69
 1980 232    68    80     2     0.0  134.9  129.4    5.5    0.21    0.88    2.13    6.04    9.19   10.44   10.11    4.91    1.44    1.34    0.16    0.23    0.05    0.15    0.11    0.12    0.12    0.37    0.20    0.19   22.04  102.97    3.41   14.52    0.00    7.53   78.69
 1980 233    69    80     2     0.0  135.0  129.6    5.5    0.11    0.44    1.04    3.86    6.87    8.57    9.44    7.26    3.02    1.35    0.16    0.24    0.05    0.16    0.11    0.13    0.13    0.36    0.19    0.19   22.29  103.16    3.43   14.57    0.00    7.73   78.69
 1980 234    70    80     2     0.0  135.2  129.7    5.5    0.10    0.34    0.78    3.22    6.14    7.96    9.14    7.54    3.84    1.50    0.17    0.25    0.06    0.16    0.12    0.14    0.13    0.36    0.19    0.18   22.55  103.31    3.45   14.62    0.00    7.92   78.69
 1980 235    71    80     2     0.0  135.3  129.8    5.6    0.12    0.31    0.71    3.01    5.97    7.86    9.11    7.39    4.11    1.67    0.17    0.25    0.06    0.17    0.12    0.14    0.14    0.36    0.19    0.18   22.78  103.45    3.50   14.67    0.00    8.11   78.69
 1980 236    72    80     2     0.0  135.5  129.9    5.6    0.15    0.31    0.69    2.85    5.77    7.72    9.04    7.30    4.29    1.87    0.18    0.26    0.06    0.17    0.13    0.15    0.14    0.35    0.19    0.17   23.02  103.59    3.54   14.72    0.00    8.29   78.69
 1980 237    73    80     2     1.2  134.1  128.5    5.6    0.19    0.31    0.63    2.59    5.21    6.99    8.32    7.21    4.57    2.55    0.18    0.26    0.06    0.18    0.13    0.16    0.15    0.35    0.19    0.17   23.25  103.74    3.88   14.77    0.00    8.48   78.69
 1980 238    74    80     2     3.0  132.3  126.6    5.7    0.25    0.33    0.62    2.46    4.90    6.57    7.88    7.09    4.71    2.78    0.16    0.26    0.06    0.18    0.14    0.16    0.16    0.35    0.19    0.17   23.53  103.95    4.13   14.83    0.00    8.70   78.69
 1980 239    75    80     2     4.1  131.2  125.6    5.6    0.34    0.36    0.64    2.40    4.77    6.36    7.63    6.99    4.76    2.93    0.13    0.26    0.06    0.19    0.14    0.17    0.16    0.35    0.19    0.17   23.84  104.21    4.30   14.89    0.00    8.96   78.69
 1980 240    76    80     2     4.6  131.0  125.3    5.6    0.43    0.41    0.68    2.43    4.77    6.30    7.54    6.91    4.74    2.99    0.11    0.25    0.05    0.18    0.15    0.17    0.17    0.35    0.19    0.17   24.19  104.53    4.39   14.95    0.00    9.24   78.69
 1980 241    77    80     2     4.9  131.0  125.4    5.5    0.55    0.47    0.73    2.46    4.79    6.31    7.54    6.84    4.72    3.02    0.08    0.23    0.04    0.18    0.15    0.18    0.17    0.34    0.19    0.16   24.55  104.91    4.43   15.02    0.00    9.53   78.69
 1980 242    78    80     2     5.0  131.1  125.7    5.4    0.64    0.52    0.77    2.49    4.81    6.32    7.55    6.81    4.70    3.04    0.07    0.21    0.04    0.17    0.14    0.18    0.17    0.34    0.18    0.16   24.90  105.31    4.45   15.09    0.00    9.82   78.69
 1980 243    79    80     2     5.0  131.4  126.1    5.3    0.73    0.58    0.82    2.52    4.83    6.34    7.56    6.80    4.70    3.05    0.06    0.19    0.03    0.17    0.14    0.17    0.16    0.34    0.18    0.16   25.25  105.70    4.46   15.15    0.00   10.10   78.69
 1980 244    80    80     2     5.0  131.6  126.4    5.2    0.81    0.63    0.87    2.55    4.85    6.36    7.56    6.80    4.70    3.05    0.06    0.17    0.03    0.16    0.14    0.17    0.16    0.33    0.18    0.16   25.58  106.08    4.47   15.21    0.00   10.37   78.69
 1980 245    81    80     2     5.0  131.9  126.8    5.1    0.90    0.67    0.91    2.58    4.86    6.38    7.57    6.80    4.70    3.05    0.06    0.16    0.03    0.16    0.13    0.16    0.16    0.33    0.18    0.16   25.89  106.44    4.48   15.26    0.00   10.63   78.69
 1980 246    82    80     2     5.0  132.1  127.1    5.0    0.35    0.64    1.07    2.80    4.88    6.39    7.57    6.80    4.70    3.05    0.05    0.15    0.03    0.15    0.13    0.16    0.15    0.33    0.18    0.15   26.19  106.79    4.49   15.31    0.00   10.88   78.69
 1980 247    83    80     2     5.0  132.3  127.4    5.0    0.17    0.46    0.79    2.46    5.34    6.65    7.58    6.80    4.70    3.06    0.09    0.16    0.03    0.15    0.12    0.15    0.15    0.32    0.18    0.15   26.48  107.03    4.49   15.36    0.00   11.12   78.69
 1980 248    84    80     2     5.0  132.6  127.5    5.0    0.15    0.42    0.73    2.32    5.28    6.96    7.60    6.80    4.70    3.06    0.11    0.17    0.04    0.16    0.13    0.15    0.14    0.32    0.18    0.15   26.75  107.22    4.50   15.41    0.00   11.34   78.69
 1980 249    85    80     2     5.0  132.8  127.7    5.1    0.17    0.41    0.71    2.22    5.13    7.10    7.76    6.80    4.70    3.06    0.12    0.19    0.04    0.16    0.13    0.16    0.14    0.32    0.18    0.15   27.01  107.39    4.50   15.45    0.00   11.56   78.69
 1980 250    86    80     2     5.0  130.6  125.5    5.1    0.12    0.27    0.51    1.70    4.18    6.62    8.59    6.96    4.72    3.09    0.13    0.19    0.05    0.17    0.14    0.16    0.14    0.31    0.18    0.15   27.27  107.58    4.51   15.49    0.00   11.78   81.07
 1980 251    87    80     2     7.4  125.4  120.2    5.2    0.15    0.25    0.44    1.46    3.52    5.63    7.40    6.91    5.00    3.35    0.14    0.20    0.05    0.17    0.14    0.17    0.14    0.31    0.18    0.15   27.51  107.71    4.52   15.53    0.00   11.98   84.15
 1980 252    88    80     2     8.7  121.4  116.2    5.2    0.21    0.26    0.39    1.28    3.04    4.97    6.66    6.84    5.13    3.49    0.13    0.21    0.05    0.18    0.15    0.17    0.15    0.31    0.18    0.15   27.79  107.90    4.56   15.57    0.00   12.21   86.97
 1980 253    89    80     2     9.2  118.4  113.2    5.2    0.29    0.27    0.37    1.17    2.72    4.54    6.18    6.77    5.18    3.55    0.11    0.21    0.05    0.18    0.15    0.18    0.16    0.30    0.18    0.15   28.10  108.14    4.59   15.62    0.00   12.48   89.65
 1980 254    90    80     2     9.2  116.0  110.8    5.2    0.34    0.28    0.37    1.09    2.51    4.28    5.85    6.71    5.18    3.55    0.10    0.21    0.05    0.19    0.16    0.19    0.16    0.30    0.18    0.15   28.46  108.46    4.60   15.68    0.00   12.78   92.36
 1980 255    91    80     2     9.2  113.7  108.6    5.1    0.41    0.30    0.36    1.03    2.33    4.05    5.52    6.65    5.17    3.55    0.07    0.19    0.04    0.18    0.16    0.18    0.15    0.29    0.18    0.15   28.82  108.89    4.60   15.73    0.00   13.09   94.98
 1980 256    92    80     2     9.2  111.7  106.7    5.0    0.43    0.32    0.35    0.97    2.17    3.86    5.25    6.61    5.17    3.55    0.06    0.18    0.04    0.18    0.15    0.18    0.15    0.29    0.18    0.15   29.17  109.30    4.60   15.78    0.00   13.38   97.23
 1980 257    93    80     2     9.2  109.6  104.7    4.9    0.34    0.37    0.35    0.91    2.01    3.65    4.96    6.56    5.17    3.56    0.05    0.17    0.03    0.17    0.15    0.17    0.15    0.28    0.18    0.15   29.51  109.69    4.61   15.84    0.00   13.68   99.60
 1980 258    94    80     2     9.2  106.9  102.1    4.9    0.31    0.34    0.33    0.84    1.81    3.39    4.59    6.49    5.17    3.56    0.08    0.17    0.03    0.16    0.15    0.17    0.15    0.28    0.18    0.14   29.84  110.01    4.61   15.89    0.00   13.95  102.58
 1980 259    95    80     2     9.2  104.0   99.2    4.8    0.30    0.31    0.31    0.75    1.60    3.10    4.19    6.40    5.16    3.56    0.09    0.17    0.03    0.16    0.14    0.17    0.14    0.27    0.18    0.14   30.17  110.35    4.62   15.94    0.00   14.23  105.83
 1980 260    96    80     2     9.2  101.8   97.1    4.7    0.26    0.33    0.31    0.70    1.46    2.89    3.90    6.34    5.16    3.56    0.09    0.17    0.03    0.15    0.14    0.16    0.14    0.27    0.18    0.14   30.50  110.71    4.62   15.99    0.00   14.51  108.27
 1980 261    97    80     2     9.2   99.6   95.0    4.7    0.20    0.30    0.32    0.65    1.32    2.68    3.61    6.27    5.15    3.56    0.11    0.17    0.04    0.15    0.13    0.16    0.14    0.26    0.17    0.14   30.79  111.01    4.62   16.03    0.00   14.76  110.68
 1980 262    98    80     2     9.2   97.3   92.7    4.6    0.14    0.23    0.28    0.63    1.20    2.46    3.31    6.19    5.15    3.57    0.12    0.18    0.04    0.14    0.13    0.15    0.14    0.26    0.17    0.14   31.06  111.28    4.62   16.07    0.00   14.99  113.20
 1980 263    99    80     2     9.2   95.4   90.8    4.6    0.18    0.23    0.24    0.52    1.13    2.26    3.04    6.11    5.14    3.57    0.13    0.19    0.04    0.15    0.12    0.15    0.13    0.25    0.17    0.14   31.33  111.52    4.63   16.11    0.00   15.22  115.39
 1980 264   100    80     2     9.2   93.7   89.1    4.6    0.24    0.25    0.26    0.47    1.03    2.09    2.81    6.04    5.14    3.57    0.11    0.20    0.05    0.16    0.12    0.14    0.13    0.25    0.17    0.14   31.64  111.82    4.63   16.16    0.00   15.48  117.31
 1980 265   101    80     2     9.2   92.2   87.7    4.5    0.28    0.26    0.25    0.42    0.95    1.94    2.61    5.97    5.13    3.57    0.12    0.20    0.05    0.16    0.12    0.14    0.13    0.25    0.17    0.14   31.94  112.10    4.63   16.20    0.00   15.74  119.06
 1980 266   102    80     2     9.2   90.7   86.2    4.5    0.21    0.29    0.31    0.40    0.86    1.79    2.40    5.90    5.13    3.57    0.10    0.20    0.05    0.16    0.12    0.13    0.12    0.24    0.17    0.13   32.26  112.44    4.64   16.25    0.00   16.01  120.89
 1980 267   103    80     2     9.2   88.4   84.0    4.4    0.25    0.25    0.25    0.34    0.73    1.61    2.13    5.80    5.12    3.57    0.11    0.21    0.05    0.16    0.12    0.13    0.12    0.24    0.17    0.13   32.55  112.72    4.64   16.30    0.00   16.26  123.37
 1980 268   104    80     2     9.2   87.4   83.0    4.4    0.24    0.29    0.28    0.33    0.67    1.50    2.00    5.73    5.12    3.57    0.10    0.21    0.05    0.16    0.13    0.13    0.12    0.23    0.17    0.13   32.87  113.05    4.64   16.34    0.00   16.53  124.66
 1980 269   105    80     2     9.2   85.5   81.1    4.4    0.27    0.25    0.25    0.30    0.59    1.34    1.78    5.62    5.11    3.58    0.11    0.21    0.05    0.15    0.13    0.12    0.11    0.23    0.17    0.13   33.17  113.33    4.65   16.39    0.00   16.78  126.83
 1980 270   106    80     2     9.2   83.8   79.5    4.3    0.32    0.27    0.26    0.28    0.51    1.19    1.59    5.51    5.09    3.58    0.10    0.21    0.05    0.15    0.13    0.12    0.11    0.22    0.17    0.13   33.49  113.67    4.65   16.43    0.00   17.06  128.74
 1980 271   107    80     2     9.2   82.1   77.9    4.2    0.34    0.28    0.27    0.27    0.44    1.05    1.42    5.39    5.07    3.58    0.09    0.21    0.05    0.15    0.13    0.12    0.11    0.22    0.16    0.13   33.82  114.03    4.65   16.48    0.00   17.34  130.72
 1980 272   108    80     2     9.2   80.6   76.5    4.1    0.37    0.30    0.27    0.27    0.38    0.94    1.29    5.27    5.04    3.58    0.05    0.19    0.04    0.15    0.12    0.12    0.10    0.22    0.16    0.13   34.15  114.44    4.65   16.53    0.00   17.62  132.59
 1980 273   109    80     2     9.2   79.1   75.2    4.0    0.35    0.30    0.27    0.27    0.34    0.85    1.16    5.16    5.01    3.58    0.05    0.17    0.03    0.14    0.12    0.11    0.10    0.21    0.16    0.13   34.47  114.81    4.65   16.58    0.00   17.89  134.26
 1980 274   110    80     2     9.2   77.8   73.9    3.9    0.33    0.30    0.27    0.27    0.30    0.77    1.04    5.06    4.98    3.58    0.04    0.15    0.03    0.14    0.12    0.11    0.10    0.21    0.16    0.13   34.77  115.17    4.65   16.62    0.00   18.14  135.89
 1980 275   111    80     2     9.2   76.8   73.0    3.8    0.32    0.29    0.27    0.27    0.28    0.72    0.97    4.98    4.95    3.58    0.03    0.14    0.03    0.13    0.11    0.11    0.10    0.21    0.16    0.13   35.05  115.51    4.65   16.67    0.00   18.38  137.09
 1980 276   112    80     2     9.2   75.4   71.7    3.7    0.29    0.29    0.26    0.27    0.26    0.65    0.86    4.87    4.91    3.58    0.03    0.13    0.02    0.13    0.11    0.11    0.09    0.20    0.15    0.13   35.31  115.83    4.65   16.71    0.00   18.60  138.70
 1980 277   113    80     2     9.2   74.2   70.7    3.6    0.29    0.29    0.26    0.27    0.26    0.59    0.78    4.77    4.86    3.58    0.02    0.12    0.02    0.12    0.11    0.10    0.09    0.20    0.15    0.12   35.55  116.13    4.65   16.74    0.00   18.81  140.09
 1980 278   114    80     2     9.2   73.0   69.5    3.5    0.27    0.28    0.26    0.26    0.26    0.53    0.69    4.66    4.82    3.58    0.02    0.11    0.02    0.12    0.10    0.10    0.09    0.19    0.15    0.12   35.78  116.42    4.65   16.78    0.00   19.00  141.48
