*SOIL-PLANT-ATMOSPHERE MODULE OUTPUT FILE

*DSSAT Cropping System Model Ver. 4.5.1.023 -Stub         NOV 08, 2014; 00:45:26
                                                                                
*RUN   1        : 97 DATE1 CHINESE          CRGRO045 GHNY9701    1              
 MODEL          : CRGRO045 - Peanut                                             
 EXPERIMENT     : GHNY9701 PN 1997 VARIETY X PLANTING DATE EXPERIMENT           
 DATA PATH      :                                                               
 TREATMENT  1   : 97 DATE1 CHINESE          CRGRO045                            
  
!                                                                                                                                                Soil evaporation (mm/d) by soil depth (cm):
!                                                                                                                                                0-5    5-15   15-30   30-45   45-60   60-90
@YEAR DOY   DAS   SRAA  TMAXA  TMINA   EOAA   EOPA   EOSA   ETAA   EPAA   ESAA   EFAA   EMAA    EOAC    ETAC    EPAC    ESAC    EFAC    EMAC    ES1D    ES2D    ES3D    ES4D    ES5D    ES6D    
 1997 148     1  22.80  30.50  22.50  5.636  0.000  5.636  1.466  0.000  1.421  0.000  0.044    5.64    1.47    0.00    1.42    0.00    0.04   0.044   0.099   0.149   0.323   0.287   0.521
 1997 149     2  23.50  32.50  23.00  5.952  0.000  5.952  1.442  0.000  1.408  0.000  0.034   11.59    2.91    0.00    2.83    0.00    0.08   0.043   0.098   0.147   0.319   0.284   0.518
 1997 150     3  24.10  34.00  24.20  6.249  0.000  6.249  1.419  0.000  1.393  0.000  0.026   17.84    4.33    0.00    4.22    0.00    0.10   0.043   0.097   0.145   0.316   0.280   0.512
 1997 151     4  22.50  33.00  24.50  5.786  0.000  5.786  0.454  0.000  0.434  0.000  0.020   23.62    4.78    0.00    4.66    0.00    0.12   0.349   0.049   0.015   0.011   0.005   0.004
 1997 152     5  22.80  33.00  23.00  5.795  0.000  5.795  0.417  0.000  0.402  0.000  0.015   29.42    5.20    0.00    5.06    0.00    0.14   0.317   0.049   0.015   0.011   0.005   0.004
 1997 153     6  19.00  33.60  23.40  4.866  0.000  4.866  0.384  0.000  0.372  0.000  0.012   34.28    5.58    0.00    5.43    0.00    0.15   0.289   0.048   0.015   0.011   0.005   0.004
 1997 154     7  22.90  33.50  22.30  5.808  0.000  5.808  0.355  0.000  0.346  0.000  0.009   40.09    5.94    0.00    5.78    0.00    0.16   0.262   0.048   0.015   0.011   0.005   0.004
 1997 155     8  13.20  31.50  23.00  3.291  0.000  3.291  0.630  0.000  0.623  0.000  0.007   43.38    6.57    0.00    6.40    0.00    0.17   0.540   0.048   0.014   0.011   0.005   0.004
 1997 156     9  13.10  27.00  21.50  3.155  0.000  3.155  0.964  0.000  0.876  0.000  0.089   46.54    7.53    0.00    7.27    0.00    0.26   0.793   0.048   0.014   0.011   0.005   0.004
 1997 157    10  20.80  32.00  21.30  5.264  0.000  5.264  0.932  0.000  0.863  0.000  0.068   51.80    8.46    0.00    8.14    0.00    0.32   0.781   0.047   0.014   0.011   0.005   0.004
 1997 158    11  15.10  31.00  22.80  3.828  0.034  3.809  0.979  0.034  0.852  0.000  0.093   55.63    9.44    0.03    8.99    0.00    0.42   0.770   0.047   0.014   0.011   0.005   0.004
 1997 159    12  16.20  33.60  23.90  4.238  0.050  4.210  0.902  0.050  0.781  0.000  0.072   59.87   10.34    0.08    9.77    0.00    0.49   0.699   0.047   0.014   0.011   0.005   0.004
 1997 160    13  23.00  34.00  23.00  5.986  0.093  5.934  0.862  0.093  0.715  0.000  0.055   65.85   11.21    0.18   10.49    0.00    0.54   0.633   0.046   0.014   0.011   0.005   0.004
 1997 161    14  16.60  32.40  23.50  4.252  0.084  4.205  0.778  0.084  0.652  0.000  0.042   70.11   11.98    0.26   11.14    0.00    0.59   0.571   0.046   0.014   0.011   0.005   0.004
 1997 162    15   8.50  27.20  24.80  2.074  0.052  2.044  0.956  0.052  0.872  0.000  0.032   72.18   12.94    0.31   12.01    0.00    0.62   0.790   0.046   0.014   0.011   0.005   0.004
 1997 163    16  20.80  30.50  21.00  5.222  0.160  5.131  1.316  0.152  1.073  0.000  0.091   77.40   14.26    0.46   13.08    0.00    0.71   0.992   0.046   0.014   0.011   0.005   0.004
 1997 164    17  10.70  31.00  23.50  2.737  0.091  2.686  2.451  0.091  2.291  0.000  0.070   80.14   16.71    0.56   15.37    0.00    0.78   0.803   0.458   0.278   0.277   0.195   0.278
 1997 165    18  15.80  31.00  21.60  4.048  0.156  3.959  3.636  0.156  3.386  0.000  0.093   84.19   20.34    0.71   18.76    0.00    0.87   1.107   0.822   0.507   0.350   0.247   0.353
 1997 166    19  14.40  30.00  22.50  3.648  0.163  3.555  3.287  0.163  3.042  0.000  0.083   87.84   23.63    0.87   21.80    0.00    0.96   0.935   0.701   0.515   0.327   0.232   0.331
 1997 167    20  16.90  30.60  22.90  4.299  0.217  4.175  3.886  0.217  3.605  0.000  0.064   92.13   27.52    1.09   25.41    0.00    1.02   1.127   0.860   0.621   0.375   0.256   0.367
 1997 168    21  21.00  30.20  20.60  5.283  0.295  5.113  4.789  0.295  4.401  0.000  0.093   97.42   32.31    1.39   29.81    0.00    1.11   1.364   1.023   0.764   0.474   0.316   0.459
 1997 169    22  22.70  32.40  21.50  5.833  0.353  5.630  5.300  0.353  4.876  0.000  0.071  103.25   37.61    1.74   34.68    0.00    1.18   1.425   1.090   0.868   0.558   0.378   0.556
 1997 170    23  16.90  32.50  20.60  4.294  0.298  4.121  3.919  0.298  3.567  0.000  0.055  107.54   41.53    2.04   38.25    0.00    1.24   1.067   0.832   0.630   0.394   0.262   0.382
 1997 171    24  23.00  30.50  21.00  5.813  0.457  5.547  5.332  0.457  4.782  0.000  0.092  113.36   46.86    2.49   43.03    0.00    1.33   1.465   1.096   0.840   0.525   0.348   0.509
 1997 172    25  22.70  32.50  23.50  5.908  0.525  5.601  5.447  0.525  4.851  0.000  0.071  119.27   52.30    3.02   47.88    0.00    1.40   1.403   1.079   0.873   0.561   0.376   0.558
 1997 173    26   8.50  32.00  24.50  2.203  0.224  2.071  2.043  0.224  1.765  0.000  0.054  121.47   54.35    3.24   49.65    0.00    1.46   0.546   0.383   0.307   0.198   0.133   0.198
 1997 174    27  10.40  25.50  20.30  2.472  0.281  2.305  2.307  0.281  1.933  0.000  0.092  123.94   56.66    3.53   51.58    0.00    1.55   0.658   0.412   0.321   0.206   0.136   0.201
 1997 175    28  13.00  29.00  21.00  3.227  0.402  2.987  3.026  0.402  2.545  0.000  0.080  127.17   59.68    3.93   54.13    0.00    1.63   0.816   0.541   0.437   0.284   0.189   0.278
 1997 176    29  16.50  31.00  23.50  4.228  0.585  3.876  3.991  0.585  3.345  0.000  0.061  131.40   63.67    4.51   57.47    0.00    1.69   1.021   0.706   0.589   0.386   0.259   0.385
 1997 177    30  24.10  31.50  23.00  6.151  0.958  5.569  2.149  0.958  1.144  0.000  0.047  137.55   65.82    5.47   58.62    0.00    1.74   0.972   0.116   0.035   0.012   0.005   0.005
 1997 178    31  21.80  32.00  23.00  5.567  0.951  4.984  2.026  0.951  1.038  0.000  0.036  143.11   67.85    6.42   59.65    0.00    1.77   0.869   0.114   0.034   0.012   0.005   0.005
 1997 179    32  13.10  32.00  21.20  3.289  0.628  2.899  3.176  0.628  2.520  0.000  0.028  146.40   71.02    7.05   62.17    0.00    1.80   0.717   0.569   0.476   0.292   0.190   0.276
 1997 180    33  23.00  30.70  23.00  5.859  1.238  5.083  5.703  1.238  4.375  0.000  0.091  152.26   76.73    8.29   66.55    0.00    1.89   1.317   0.975   0.815   0.491   0.316   0.459
 1997 181    34  16.40  29.50  23.40  4.100  0.935  3.507  4.016  0.935  3.012  0.000  0.070  156.36   80.74    9.22   69.56    0.00    1.96   0.922   0.666   0.547   0.339   0.220   0.318
 1997 182    35  19.30  29.50  25.00  4.905  1.231  4.114  4.845  1.231  3.521  0.000  0.094  161.27   85.59   10.45   73.08    0.00    2.05   1.092   0.757   0.622   0.400   0.264   0.386
 1997 183    36   8.80  29.50  23.50  2.195  0.606  1.800  2.187  0.606  1.509  0.000  0.072  163.46   87.77   11.06   74.59    0.00    2.13   0.448   0.321   0.271   0.177   0.119   0.174
 1997 184    37   9.50  27.50  20.50  2.262  0.666  1.815  2.261  0.666  1.540  0.000  0.055  165.72   90.04   11.72   76.13    0.00    2.18   0.446   0.327   0.279   0.183   0.123   0.182
 1997 185    38   9.70  29.00  21.50  2.359  0.728  1.855  2.358  0.728  1.587  0.000  0.042  168.08   92.39   12.45   77.72    0.00    2.22   0.448   0.337   0.290   0.192   0.129   0.191
 1997 186    39  16.60  29.70  23.50  4.116  1.399  3.161  2.551  1.399  1.120  0.000  0.032  172.20   94.94   13.85   78.84    0.00    2.26   0.951   0.113   0.034   0.012   0.005   0.005
 1997 187    40  15.70  29.80  22.70  3.870  1.420  2.882  2.582  1.420  1.071  0.000  0.091  176.07   97.53   15.27   79.91    0.00    2.35   0.906   0.110   0.034   0.012   0.005   0.005
 1997 188    41  16.40  29.00  22.50  3.986  1.567  2.874  2.602  1.567  0.965  0.000  0.070  180.05  100.13   16.84   80.87    0.00    2.42   0.804   0.107   0.033   0.012   0.005   0.005
 1997 189    42  21.50  30.50  22.50  5.290  2.217  3.685  3.138  2.217  0.867  0.000  0.054  185.34  103.27   19.05   81.74    0.00    2.47   0.710   0.104   0.033   0.012   0.005   0.005
 1997 190    43  18.90  31.50  22.50  4.684  2.067  3.161  2.877  2.067  0.768  0.000  0.041  190.03  106.14   21.12   82.51    0.00    2.51   0.616   0.099   0.032   0.011   0.005   0.005
 1997 191    44  11.40  27.50  23.30  2.714  1.170  1.756  2.711  1.170  1.510  0.000  0.032  192.74  108.85   22.29   84.02    0.00    2.54   0.427   0.340   0.265   0.176   0.120   0.182
 1997 192    45  11.60  31.00  22.00  2.886  1.308  1.793  2.883  1.308  1.482  0.000  0.092  195.63  111.74   23.60   85.50    0.00    2.64   0.481   0.330   0.246   0.159   0.106   0.161
 1997 193    46  19.80  27.50  23.00  4.753  2.243  2.853  4.748  2.243  2.434  0.000  0.070  200.38  116.48   25.84   87.93    0.00    2.71   0.781   0.527   0.413   0.271   0.176   0.267
 1997 194    47  21.50  31.00  23.50  5.365  2.614  3.128  5.360  2.614  2.651  0.000  0.095  205.75  121.84   28.46   90.59    0.00    2.80   0.821   0.563   0.464   0.303   0.198   0.302
 1997 195    48  18.10  32.00  24.50  4.578  2.302  2.587  4.573  2.302  2.198  0.000  0.073  210.32  126.42   30.76   92.78    0.00    2.87   0.680   0.497   0.395   0.242   0.154   0.231
 1997 196    49  10.20  29.50  22.00  2.477  1.285  1.355  2.474  1.285  1.093  0.000  0.096  212.80  128.89   32.04   93.88    0.00    2.97   0.330   0.249   0.197   0.124   0.086   0.109
 1997 197    50   7.10  25.50  21.00  1.637  0.868  0.874  1.634  0.868  0.681  0.000  0.085  214.44  130.53   32.91   94.56    0.00    3.05   0.197   0.142   0.122   0.084   0.062   0.074
 1997 198    51  15.50  29.50  22.50  3.768  2.028  1.979  3.763  2.028  1.641  0.000  0.094  218.21  134.29   34.94   96.20    0.00    3.15   0.477   0.342   0.293   0.199   0.143   0.187
 1997 199    52  16.20  28.50  22.00  3.868  2.133  1.973  3.863  2.133  1.658  0.000  0.072  222.08  138.15   37.07   97.86    0.00    3.22   0.479   0.344   0.297   0.201   0.142   0.195
 1997 200    53  17.40  30.30  22.20  4.233  2.386  2.101  4.227  2.386  1.786  0.000  0.055  226.31  142.38   39.46   99.64    0.00    3.27   0.506   0.373   0.323   0.218   0.151   0.215
 1997 201    54  12.00  28.50  20.60  2.824  1.626  1.362  2.820  1.626  1.151  0.000  0.042  229.13  145.20   41.09  100.80    0.00    3.32   0.319   0.238   0.210   0.142   0.099   0.144
 1997 202    55   7.10  29.50  20.60  1.688  0.987  0.797  1.685  0.987  0.633  0.000  0.065  230.82  146.88   42.07  101.43    0.00    3.38   0.177   0.129   0.115   0.078   0.054   0.080
 1997 203    56  23.10  30.50  22.00  5.606  3.310  2.612  5.598  3.310  2.201  0.000  0.087  236.43  152.48   45.38  103.63    0.00    3.47   0.619   0.442   0.398   0.274   0.188   0.279
 1997 204    57  16.80  32.00  22.50  4.149  2.495  1.882  4.143  2.495  1.582  0.000  0.067  240.57  156.62   47.88  105.21    0.00    3.54   0.485   0.301   0.273   0.191   0.133   0.199
 1997 205    58  15.90  31.70  22.30  3.919  2.397  1.733  3.914  2.397  1.419  0.000  0.098  244.49  160.54   50.28  106.63    0.00    3.63   0.480   0.260   0.229   0.164   0.114   0.172
 1997 206    59  20.80  30.00  21.50  5.002  3.104  2.160  4.994  3.104  1.804  0.000  0.086  249.50  165.53   53.38  108.43    0.00    3.72   0.595   0.333   0.291   0.212   0.148   0.226
 1997 207    60  20.70  32.00  23.00  5.129  3.784  2.163  4.960  3.784  1.110  0.000  0.066  254.62  170.49   57.16  109.54    0.00    3.79   0.971   0.091   0.028   0.011   0.005   0.005
 1997 208    61  18.60  32.50  23.50  4.639  3.475  1.908  4.490  3.475  0.965  0.000  0.050  259.26  174.98   60.64  110.51    0.00    3.84   0.834   0.084   0.027   0.011   0.005   0.005
 1997 209    62  21.20  32.00  23.00  5.233  3.972  2.103  4.848  3.972  0.837  0.000  0.038  264.50  179.83   64.61  111.35    0.00    3.87   0.713   0.078   0.026   0.011   0.005   0.005
 1997 210    63  12.60  31.00  23.50  3.084  2.076  1.212  3.079  2.076  0.974  0.000  0.029  267.58  182.91   66.69  112.32    0.00    3.90   0.856   0.073   0.025   0.010   0.005   0.005
 1997 211    64   9.80  29.50  22.00  2.344  1.547  0.907  2.340  1.547  0.695  0.000  0.098  269.93  185.25   68.23  113.02    0.00    4.00   0.255   0.133   0.094   0.075   0.053   0.086
 1997 212    65   7.80  27.00  21.50  1.813  1.201  0.697  1.809  1.201  0.529  0.000  0.079  271.74  187.06   69.43  113.55    0.00    4.08   0.187   0.118   0.071   0.053   0.038   0.062
 1997 213    66  10.80  27.60  22.60  2.544  1.687  0.976  2.539  1.687  0.792  0.000  0.060  274.28  189.60   71.12  114.34    0.00    4.14   0.276   0.176   0.111   0.080   0.057   0.093
 1997 214    67  21.20  31.00  22.60  5.177  3.442  1.979  5.169  3.442  1.626  0.000  0.101  279.46  194.77   74.56  115.96    0.00    4.24   0.546   0.363   0.233   0.166   0.120   0.197
 1997 215    68  18.60  33.40  22.30  4.641  3.408  1.750  4.634  3.408  1.150  0.000  0.077  284.10  199.40   77.97  117.11    0.00    4.32   0.995   0.111   0.025   0.010   0.004   0.005
 1997 216    69  11.80  29.50  24.20  2.860  1.927  1.065  2.856  1.927  0.870  0.000  0.059  286.96  202.26   79.90  117.98    0.00    4.38   0.743   0.090   0.021   0.008   0.004   0.004
 1997 217    70  13.50  30.00  22.50  3.247  2.191  1.206  3.242  2.191  1.006  0.000  0.045  290.21  205.50   82.09  118.99    0.00    4.42   0.307   0.235   0.178   0.105   0.067   0.114
 1997 218    71   7.50  28.00  21.00  1.753  1.185  0.648  1.750  1.185  0.482  0.000  0.083  291.96  207.25   83.27  119.47    0.00    4.51   0.149   0.109   0.091   0.051   0.032   0.050
 1997 219    72  12.60  30.00  22.50  3.040  2.056  1.124  3.035  2.056  0.897  0.000  0.082  295.00  210.29   85.33  120.37    0.00    4.59   0.271   0.195   0.165   0.099   0.067   0.099
 1997 220    73  21.90  30.40  21.10  5.249  3.553  1.938  5.240  3.553  1.625  0.000  0.062  300.25  215.53   88.88  121.99    0.00    4.65   0.484   0.346   0.296   0.186   0.126   0.187
 1997 221    74  14.10  31.40  23.00  3.459  2.347  1.271  3.453  2.347  1.059  0.000  0.047  303.71  218.98   91.23  123.05    0.00    4.70   0.304   0.223   0.195   0.125   0.085   0.128
 1997 222    75  21.00  30.00  23.00  5.073  3.963  1.862  5.064  3.963  1.066  0.000  0.036  308.78  224.04   95.19  124.12    0.00    4.73   0.901   0.110   0.034   0.011   0.005   0.005
 1997 223    76  21.40  30.80  22.50  5.189  4.124  1.900  5.076  4.124  0.925  0.000  0.027  313.97  229.12   99.32  125.04    0.00    4.76   0.768   0.103   0.033   0.011   0.005   0.005
 1997 224    77  16.70  30.00  22.40  4.008  3.187  1.464  4.001  3.187  0.793  0.000  0.021  317.98  233.12  102.50  125.84    0.00    4.78   0.646   0.096   0.031   0.011   0.005   0.005
 1997 225    78  17.50  30.50  23.60  4.255  3.386  1.553  4.088  3.386  0.687  0.000  0.016  322.23  237.21  105.89  126.52    0.00    4.80   0.546   0.090   0.030   0.011   0.005   0.005
 1997 226    79  16.90  31.50  23.50  4.146  3.301  1.512  3.908  3.301  0.595  0.000  0.012  326.38  241.12  109.19  127.12    0.00    4.81   0.462   0.084   0.029   0.011   0.005   0.005
 1997 227    80   8.70  27.40  23.40  2.040  1.391  0.744  2.037  1.391  0.636  0.000  0.009  328.42  243.15  110.58  127.75    0.00    4.82   0.529   0.067   0.024   0.009   0.004   0.004
 1997 228    81  18.30  34.00  21.20  4.546  3.547  1.668  4.539  3.547  0.886  0.000  0.105  332.97  247.69  114.13  128.64    0.00    4.92   0.765   0.075   0.027   0.010   0.005   0.005
 1997 229    82  13.20  30.50  23.50  3.209  2.361  1.178  3.204  2.361  0.764  0.000  0.079  336.17  250.90  116.49  129.40    0.00    5.00   0.650   0.069   0.026   0.010   0.004   0.005
 1997 230    83  17.50  34.00  22.50  4.379  2.970  1.618  4.372  2.970  1.343  0.000  0.059  340.55  255.27  119.46  130.75    0.00    5.06   0.390   0.286   0.254   0.154   0.098   0.162
 1997 231    84  20.40  30.50  21.50  4.914  3.331  1.818  4.906  3.331  1.464  0.000  0.111  345.47  260.17  122.79  132.21    0.00    5.17   0.452   0.332   0.273   0.156   0.098   0.154
 1997 232    85  19.40  29.50  22.50  4.650  3.150  1.722  4.642  3.150  1.409  0.000  0.083  350.12  264.82  125.94  133.62    0.00    5.26   0.421   0.306   0.258   0.158   0.107   0.159
 1997 233    86  26.20  33.50  23.80  6.604  4.464  2.460  6.594  4.464  2.068  0.000  0.062  356.72  271.41  130.41  135.69    0.00    5.32   0.634   0.471   0.368   0.225   0.149   0.221
 1997 234    87  15.50  33.50  23.50  3.906  2.640  1.456  3.900  2.640  1.147  0.000  0.113  360.63  275.31  133.04  136.84    0.00    5.43   0.352   0.260   0.202   0.126   0.084   0.124
 1997 235    88   6.80  32.50  22.50  1.682  1.135  0.630  1.680  1.135  0.460  0.000  0.085  362.31  276.99  134.18  137.30    0.00    5.52   0.138   0.101   0.082   0.052   0.035   0.053
 1997 236    89  15.90  31.50  22.00  3.878  2.610  1.459  3.872  2.610  1.199  0.000  0.063  366.19  280.86  136.79  138.49    0.00    5.58   0.357   0.256   0.213   0.139   0.094   0.139
 1997 237    90  21.80  32.40  23.00  5.402  3.628  2.043  5.394  3.628  1.718  0.000  0.047  371.59  286.26  140.42  140.21    0.00    5.63   0.542   0.377   0.293   0.189   0.127   0.190
 1997 238    91  15.70  31.50  22.20  3.841  2.578  1.454  3.835  2.578  1.143  0.000  0.114  375.43  290.09  143.00  141.36    0.00    5.74   0.363   0.249   0.194   0.126   0.085   0.126
 1997 239    92  17.60  32.50  23.00  4.371  2.928  1.662  4.364  2.928  1.351  0.000  0.085  379.80  294.46  145.92  142.71    0.00    5.83   0.442   0.293   0.225   0.146   0.098   0.147
 1997 240    93   9.80  32.50  20.50  2.395  1.602  0.914  2.391  1.602  0.671  0.000  0.118  382.20  296.85  147.53  143.38    0.00    5.94   0.216   0.143   0.114   0.074   0.050   0.075
 1997 241    94  22.90  31.20  22.50  5.592  3.733  2.143  5.584  3.733  1.763  0.000  0.088  387.79  302.43  151.26  145.14    0.00    6.03   0.572   0.394   0.293   0.189   0.127   0.188
 1997 242    95  21.00  30.00  23.40  5.100  3.404  1.956  5.092  3.404  1.569  0.000  0.119  392.89  307.52  154.66  146.71    0.00    6.15   0.492   0.351   0.266   0.172   0.116   0.172
 1997 243    96  22.00  31.00  22.70  5.366  3.580  2.059  5.357  3.580  1.688  0.000  0.089  398.26  312.88  158.24  148.40    0.00    6.24   0.511   0.366   0.294   0.192   0.130   0.195
 1997 244    97  18.50  33.00  23.00  4.613  3.406  1.771  4.606  3.406  1.134  0.000  0.066  402.87  317.49  161.65  149.53    0.00    6.31   0.964   0.116   0.034   0.011   0.005   0.005
 1997 245    98  18.00  30.50  23.50  4.382  3.330  1.684  4.375  3.330  0.996  0.000  0.049  407.25  321.86  164.98  150.53    0.00    6.35   0.833   0.110   0.032   0.011   0.005   0.005
 1997 246    99  11.20  28.60  23.00  2.659  1.774  1.023  2.655  1.774  0.845  0.000  0.036  409.91  324.52  166.75  151.37    0.00    6.39   0.698   0.098   0.030   0.010   0.004   0.004
 1997 247   100  11.60  30.00  23.50  2.805  1.868  1.082  2.801  1.868  0.849  0.000  0.083  412.72  327.32  168.62  152.22    0.00    6.47   0.726   0.082   0.025   0.009   0.004   0.004
 1997 248   101  18.80  32.50  22.50  4.650  3.093  1.799  4.643  3.093  1.448  0.000  0.102  417.37  331.96  171.71  153.67    0.00    6.58   0.478   0.324   0.234   0.150   0.102   0.160
 1997 249   102  14.00  31.50  22.00  3.421  2.275  1.324  3.416  2.275  1.031  0.000  0.109  420.79  335.37  173.99  154.70    0.00    6.69   0.328   0.241   0.172   0.108   0.070   0.111

*DSSAT Cropping System Model Ver. 4.5.1.023 -Stub         NOV 08, 2014; 00:45:26
                                                                                
*RUN   2        : 97 DATE1 F-MIX            CRGRO045 GHNY9701    2              
 MODEL          : CRGRO045 - Peanut                                             
 EXPERIMENT     : GHNY9701 PN 1997 VARIETY X PLANTING DATE EXPERIMENT           
 DATA PATH      :                                                               
 TREATMENT  2   : 97 DATE1 F-MIX            CRGRO045                            
  
!                                                                                                                                                Soil evaporation (mm/d) by soil depth (cm):
!                                                                                                                                                0-5    5-15   15-30   30-45   45-60   60-90
@YEAR DOY   DAS   SRAA  TMAXA  TMINA   EOAA   EOPA   EOSA   ETAA   EPAA   ESAA   EFAA   EMAA    EOAC    ETAC    EPAC    ESAC    EFAC    EMAC    ES1D    ES2D    ES3D    ES4D    ES5D    ES6D    
 1997 148     1  22.80  30.50  22.50  5.636  0.000  5.636  1.466  0.000  1.421  0.000  0.044    5.64    1.47    0.00    1.42    0.00    0.04   0.044   0.099   0.149   0.323   0.287   0.521
 1997 149     2  23.50  32.50  23.00  5.952  0.000  5.952  1.442  0.000  1.408  0.000  0.034   11.59    2.91    0.00    2.83    0.00    0.08   0.043   0.098   0.147   0.319   0.284   0.518
 1997 150     3  24.10  34.00  24.20  6.249  0.000  6.249  1.419  0.000  1.393  0.000  0.026   17.84    4.33    0.00    4.22    0.00    0.10   0.043   0.097   0.145   0.316   0.280   0.512
 1997 151     4  22.50  33.00  24.50  5.786  0.000  5.786  0.454  0.000  0.434  0.000  0.020   23.62    4.78    0.00    4.66    0.00    0.12   0.349   0.049   0.015   0.011   0.005   0.004
 1997 152     5  22.80  33.00  23.00  5.795  0.000  5.795  0.417  0.000  0.402  0.000  0.015   29.42    5.20    0.00    5.06    0.00    0.14   0.317   0.049   0.015   0.011   0.005   0.004
 1997 153     6  19.00  33.60  23.40  4.866  0.000  4.866  0.384  0.000  0.372  0.000  0.012   34.28    5.58    0.00    5.43    0.00    0.15   0.289   0.048   0.015   0.011   0.005   0.004
 1997 154     7  22.90  33.50  22.30  5.808  0.000  5.808  0.355  0.000  0.346  0.000  0.009   40.09    5.94    0.00    5.78    0.00    0.16   0.262   0.048   0.015   0.011   0.005   0.004
 1997 155     8  13.20  31.50  23.00  3.291  0.000  3.291  0.630  0.000  0.623  0.000  0.007   43.38    6.57    0.00    6.40    0.00    0.17   0.540   0.048   0.014   0.011   0.005   0.004
 1997 156     9  13.10  27.00  21.50  3.155  0.000  3.155  0.964  0.000  0.876  0.000  0.089   46.54    7.53    0.00    7.27    0.00    0.26   0.793   0.048   0.014   0.011   0.005   0.004
 1997 157    10  20.80  32.00  21.30  5.264  0.000  5.264  0.932  0.000  0.863  0.000  0.068   51.80    8.46    0.00    8.14    0.00    0.32   0.781   0.047   0.014   0.011   0.005   0.004
 1997 158    11  15.10  31.00  22.80  3.828  0.041  3.805  0.987  0.041  0.852  0.000  0.093   55.63    9.45    0.04    8.99    0.00    0.42   0.770   0.047   0.014   0.011   0.005   0.004
 1997 159    12  16.20  33.60  23.90  4.238  0.053  4.208  0.905  0.053  0.780  0.000  0.072   59.87   10.35    0.09    9.77    0.00    0.49   0.698   0.047   0.014   0.011   0.005   0.004
 1997 160    13  23.00  34.00  23.00  5.986  0.089  5.936  0.858  0.089  0.714  0.000  0.055   65.85   11.21    0.18   10.49    0.00    0.54   0.633   0.046   0.014   0.011   0.005   0.004
 1997 161    14  16.60  32.40  23.50  4.252  0.082  4.206  0.777  0.082  0.652  0.000  0.042   70.11   11.99    0.27   11.14    0.00    0.59   0.571   0.046   0.014   0.011   0.005   0.004
 1997 162    15   8.50  27.20  24.80  2.074  0.052  2.045  0.955  0.052  0.872  0.000  0.032   72.18   12.94    0.32   12.01    0.00    0.62   0.790   0.046   0.014   0.011   0.005   0.004
 1997 163    16  20.80  30.50  21.00  5.222  0.160  5.132  1.324  0.160  1.073  0.000  0.091   77.40   14.27    0.48   13.08    0.00    0.71   0.992   0.046   0.014   0.011   0.005   0.004
 1997 164    17  10.70  31.00  23.50  2.737  0.093  2.684  2.452  0.093  2.289  0.000  0.070   80.14   16.72    0.57   15.37    0.00    0.78   0.803   0.458   0.278   0.277   0.195   0.278
 1997 165    18  15.80  31.00  21.60  4.048  0.158  3.958  3.636  0.158  3.385  0.000  0.093   84.19   20.36    0.73   18.76    0.00    0.87   1.107   0.822   0.507   0.350   0.247   0.353
 1997 166    19  14.40  30.00  22.50  3.648  0.162  3.556  3.287  0.162  3.042  0.000  0.083   87.83   23.64    0.89   21.80    0.00    0.96   0.936   0.701   0.515   0.327   0.232   0.331
 1997 167    20  16.90  30.60  22.90  4.300  0.213  4.177  3.884  0.213  3.607  0.000  0.064   92.13   27.53    1.10   25.41    0.00    1.02   1.127   0.860   0.621   0.375   0.256   0.367
 1997 168    21  21.00  30.20  20.60  5.284  0.288  5.118  4.786  0.288  4.405  0.000  0.093   97.42   32.31    1.39   29.81    0.00    1.11   1.366   1.024   0.765   0.475   0.317   0.459
 1997 169    22  22.70  32.40  21.50  5.834  0.341  5.637  5.295  0.341  4.883  0.000  0.071  103.25   37.61    1.73   34.69    0.00    1.18   1.427   1.092   0.869   0.559   0.379   0.557
 1997 170    23  16.90  32.50  20.60  4.294  0.289  4.127  3.915  0.289  3.572  0.000  0.055  107.55   41.52    2.02   38.27    0.00    1.24   1.068   0.833   0.630   0.395   0.263   0.383
 1997 171    24  23.00  30.50  21.00  5.814  0.444  5.556  5.327  0.444  4.790  0.000  0.092  113.36   46.85    2.46   43.06    0.00    1.33   1.467   1.097   0.841   0.526   0.349   0.509
 1997 172    25  22.70  32.50  23.50  5.909  0.512  5.610  5.442  0.512  4.859  0.000  0.071  119.27   52.29    2.98   47.91    0.00    1.40   1.405   1.081   0.875   0.562   0.377   0.559
 1997 173    26   8.50  32.00  24.50  2.203  0.218  2.075  2.041  0.218  1.769  0.000  0.054  121.47   54.33    3.19   49.68    0.00    1.46   0.547   0.384   0.308   0.199   0.133   0.198
 1997 174    27  10.40  25.50  20.30  2.473  0.274  2.310  2.304  0.274  1.938  0.000  0.092  123.94   56.64    3.47   51.62    0.00    1.55   0.659   0.413   0.322   0.206   0.136   0.201
 1997 175    28  13.00  29.00  21.00  3.227  0.392  2.994  3.023  0.392  2.551  0.000  0.080  127.17   59.66    3.86   54.17    0.00    1.63   0.818   0.542   0.438   0.285   0.189   0.279
 1997 176    29  16.50  31.00  23.50  4.229  0.571  3.886  3.986  0.571  3.353  0.000  0.061  131.40   63.65    4.43   57.53    0.00    1.69   1.023   0.707   0.590   0.387   0.260   0.386
 1997 177    30  24.10  31.50  23.00  6.152  0.939  5.583  2.129  0.939  1.143  0.000  0.047  137.55   65.78    5.37   58.67    0.00    1.74   0.971   0.116   0.035   0.012   0.005   0.005
 1997 178    31  21.80  32.00  23.00  5.567  0.958  4.979  2.033  0.958  1.038  0.000  0.036  143.12   67.81    6.33   59.71    0.00    1.77   0.869   0.114   0.034   0.012   0.005   0.005
 1997 179    32  13.10  32.00  21.20  3.288  0.634  2.895  3.178  0.634  2.516  0.000  0.028  146.41   70.99    6.96   62.22    0.00    1.80   0.716   0.568   0.475   0.292   0.189   0.276
 1997 180    33  23.00  30.70  23.00  5.858  1.248  5.074  5.706  1.248  4.367  0.000  0.091  152.26   76.69    8.21   66.59    0.00    1.89   1.315   0.974   0.814   0.490   0.316   0.458
 1997 181    34  16.40  29.50  23.40  4.099  0.953  3.493  4.022  0.953  2.999  0.000  0.070  156.36   80.71    9.16   69.59    0.00    1.96   0.918   0.663   0.545   0.338   0.219   0.316
 1997 182    35  19.30  29.50  25.00  4.903  1.262  4.088  4.854  1.262  3.498  0.000  0.094  161.27   85.57   10.43   73.09    0.00    2.05   1.085   0.751   0.618   0.398   0.263   0.384
 1997 183    36   8.80  29.50  23.50  2.194  0.625  1.783  2.192  0.625  1.495  0.000  0.072  163.46   87.76   11.05   74.58    0.00    2.13   0.443   0.317   0.268   0.175   0.118   0.173
 1997 184    37   9.50  27.50  20.50  2.261  0.681  1.797  2.259  0.681  1.523  0.000  0.055  165.72   90.02   11.73   76.11    0.00    2.18   0.441   0.323   0.276   0.181   0.122   0.180
 1997 185    38   9.70  29.00  21.50  2.358  0.745  1.834  2.356  0.745  1.569  0.000  0.042  168.08   92.37   12.48   77.67    0.00    2.22   0.442   0.333   0.286   0.190   0.128   0.189
 1997 186    39  16.60  29.70  23.50  4.113  1.444  3.119  2.596  1.444  1.119  0.000  0.032  172.19   94.97   13.92   78.79    0.00    2.26   0.951   0.113   0.034   0.012   0.005   0.005
 1997 187    40  15.70  29.80  22.70  3.867  1.467  2.837  2.627  1.467  1.069  0.000  0.091  176.06   97.60   15.39   79.86    0.00    2.35   0.904   0.109   0.034   0.012   0.005   0.005
 1997 188    41  16.40  29.00  22.50  3.983  1.621  2.820  2.654  1.621  0.963  0.000  0.070  180.04  100.25   17.01   80.82    0.00    2.42   0.802   0.106   0.033   0.012   0.005   0.005
 1997 189    42  21.50  30.50  22.50  5.286  2.299  3.600  3.216  2.299  0.864  0.000  0.054  185.33  103.47   19.31   81.69    0.00    2.47   0.707   0.103   0.033   0.012   0.005   0.005
 1997 190    43  18.90  31.50  22.50  4.681  2.137  3.087  2.940  2.137  0.763  0.000  0.041  190.01  106.41   21.45   82.45    0.00    2.51   0.611   0.099   0.032   0.011   0.005   0.005
 1997 191    44  11.40  27.50  23.30  2.712  1.213  1.703  2.709  1.213  1.464  0.000  0.032  192.72  109.12   22.66   83.92    0.00    2.54   0.414   0.328   0.256   0.171   0.117   0.178
 1997 192    45  11.60  31.00  22.00  2.881  1.355  1.735  2.878  1.355  1.432  0.000  0.092  195.60  112.00   24.01   85.35    0.00    2.64   0.466   0.318   0.237   0.154   0.102   0.156
 1997 193    46  19.80  27.50  23.00  4.746  2.309  2.770  4.740  2.309  2.361  0.000  0.070  200.35  116.74   26.32   87.71    0.00    2.71   0.759   0.510   0.400   0.263   0.169   0.259
 1997 194    47  21.50  31.00  23.50  5.357  2.700  3.020  5.351  2.700  2.556  0.000  0.095  205.71  122.09   29.02   90.26    0.00    2.80   0.793   0.542   0.448   0.293   0.189   0.291
 1997 195    48  18.10  32.00  24.50  4.571  2.387  2.483  4.565  2.387  2.106  0.000  0.073  210.28  126.65   31.41   92.37    0.00    2.87   0.652   0.477   0.378   0.232   0.146   0.222
 1997 196    49  10.20  29.50  22.00  2.472  1.336  1.290  2.469  1.336  1.037  0.000  0.096  212.75  129.12   32.75   93.41    0.00    2.97   0.313   0.236   0.187   0.117   0.081   0.103
 1997 197    50   7.10  25.50  21.00  1.633  0.905  0.826  1.630  0.905  0.639  0.000  0.085  214.38  130.75   33.65   94.05    0.00    3.06   0.185   0.134   0.114   0.079   0.058   0.070
 1997 198    51  15.50  29.50  22.50  3.759  2.123  1.860  3.753  2.123  1.537  0.000  0.094  218.14  134.51   35.77   95.58    0.00    3.15   0.447   0.320   0.274   0.187   0.134   0.175
 1997 199    52  16.20  28.50  22.00  3.859  2.241  1.839  3.853  2.241  1.540  0.000  0.072  222.00  138.36   38.02   97.12    0.00    3.22   0.446   0.319   0.276   0.187   0.132   0.181
 1997 200    53  17.40  30.30  22.20  4.222  2.518  1.938  4.216  2.518  1.643  0.000  0.055  226.22  142.58   40.53   98.77    0.00    3.28   0.467   0.343   0.297   0.200   0.139   0.198
 1997 201    54  12.00  28.50  20.60  2.817  1.724  1.243  2.812  1.724  1.047  0.000  0.042  229.04  145.39   42.26   99.81    0.00    3.32   0.291   0.216   0.190   0.129   0.090   0.130
 1997 202    55   7.10  29.50  20.60  1.683  1.051  0.719  1.681  1.051  0.564  0.000  0.065  230.72  147.07   43.31  100.38    0.00    3.38   0.159   0.114   0.102   0.070   0.048   0.071
 1997 203    56  23.10  30.50  22.00  5.590  3.540  2.331  5.582  3.540  1.954  0.000  0.087  236.31  152.65   46.85  102.33    0.00    3.47   0.553   0.391   0.352   0.243   0.167   0.248
 1997 204    57  16.80  32.00  22.50  4.138  2.678  1.660  4.131  2.678  1.386  0.000  0.067  240.45  156.78   49.53  103.72    0.00    3.54   0.428   0.263   0.238   0.168   0.116   0.174
 1997 205    58  15.90  31.70  22.30  3.905  2.581  1.506  3.899  2.581  1.220  0.000  0.099  244.35  160.68   52.11  104.94    0.00    3.64   0.414   0.223   0.196   0.141   0.098   0.148
 1997 206    59  20.80  30.00  21.50  4.984  3.356  1.851  4.975  3.356  1.533  0.000  0.086  249.34  165.66   55.46  106.47    0.00    3.72   0.508   0.282   0.246   0.180   0.125   0.192
 1997 207    60  20.70  32.00  23.00  5.112  3.918  1.829  5.103  3.918  1.120  0.000  0.066  254.45  170.76   59.38  107.59    0.00    3.79   0.981   0.091   0.028   0.011   0.005   0.005
 1997 208    61  18.60  32.50  23.50  4.625  3.595  1.590  4.618  3.595  0.972  0.000  0.050  259.07  175.38   62.98  108.56    0.00    3.84   0.841   0.084   0.027   0.011   0.005   0.005
 1997 209    62  21.20  32.00  23.00  5.218  4.321  1.726  5.200  4.321  0.841  0.000  0.038  264.29  180.58   67.30  109.40    0.00    3.88   0.718   0.078   0.026   0.010   0.005   0.005
 1997 210    63  12.60  31.00  23.50  3.076  2.215  0.979  3.071  2.215  0.826  0.000  0.029  267.37  183.65   69.51  110.23    0.00    3.91   0.728   0.061   0.021   0.009   0.004   0.004
 1997 211    64   9.80  29.50  22.00  2.335  1.701  0.721  2.331  1.701  0.539  0.000  0.091  269.70  185.98   71.21  110.77    0.00    4.00   0.198   0.103   0.072   0.058   0.041   0.067
 1997 212    65   7.80  27.00  21.50  1.804  1.324  0.546  1.800  1.324  0.407  0.000  0.069  271.51  187.78   72.54  111.17    0.00    4.07   0.144   0.091   0.054   0.041   0.029   0.048
 1997 213    66  10.80  27.60  22.60  2.532  1.868  0.755  2.527  1.868  0.594  0.000  0.065  274.04  190.31   74.41  111.77    0.00    4.13   0.208   0.132   0.081   0.060   0.043   0.070
 1997 214    67  21.20  31.00  22.60  5.153  3.830  1.507  5.144  3.830  1.216  0.000  0.099  279.19  195.45   78.24  112.98    0.00    4.23   0.411   0.272   0.171   0.124   0.089   0.148
 1997 215    68  18.60  33.40  22.30  4.621  3.471  1.311  4.614  3.471  1.067  0.000  0.075  283.81  200.06   81.71  114.05    0.00    4.31   0.926   0.101   0.023   0.009   0.004   0.004
 1997 216    69  11.80  29.50  24.20  2.849  2.160  0.785  2.844  2.160  0.627  0.000  0.057  286.66  202.91   83.87  114.68    0.00    4.36   0.538   0.064   0.014   0.006   0.003   0.003
 1997 217    70  13.50  30.00  22.50  3.236  2.469  0.874  3.230  2.469  0.718  0.000  0.043  289.90  206.14   86.34  115.40    0.00    4.41   0.222   0.167   0.126   0.074   0.047   0.081
 1997 218    71   7.50  28.00  21.00  1.743  1.338  0.462  1.740  1.338  0.342  0.000  0.060  291.64  207.88   87.67  115.74    0.00    4.47   0.106   0.077   0.065   0.036   0.022   0.036
 1997 219    72  12.60  30.00  22.50  3.024  2.326  0.796  3.018  2.326  0.603  0.000  0.089  294.67  210.90   90.00  116.34    0.00    4.56   0.183   0.131   0.111   0.066   0.045   0.067
 1997 220    73  21.90  30.40  21.10  5.223  4.036  1.354  5.213  4.036  1.110  0.000  0.068  299.89  216.11   94.04  117.45    0.00    4.62   0.332   0.236   0.202   0.127   0.086   0.128
 1997 221    74  14.10  31.40  23.00  3.443  2.677  0.874  3.436  2.677  0.708  0.000  0.051  303.33  219.55   96.71  118.16    0.00    4.67   0.602   0.071   0.022   0.007   0.003   0.003
 1997 222    75  21.00  30.00  23.00  5.049  3.955  1.261  5.040  3.955  1.046  0.000  0.039  308.38  224.59  100.67  119.20    0.00    4.71   0.881   0.110   0.034   0.011   0.005   0.005
 1997 223    76  21.40  30.80  22.50  5.167  4.221  1.266  5.158  4.221  0.907  0.000  0.029  313.55  229.74  104.89  120.11    0.00    4.74   0.751   0.103   0.033   0.011   0.005   0.005
 1997 224    77  16.70  30.00  22.40  3.993  3.187  0.960  3.986  3.187  0.776  0.000  0.022  317.54  233.73  108.08  120.89    0.00    4.76   0.628   0.096   0.031   0.011   0.005   0.005
 1997 225    78  17.50  30.50  23.60  4.241  3.545  1.004  4.233  3.545  0.671  0.000  0.017  321.78  237.96  111.62  121.56    0.00    4.78   0.531   0.090   0.030   0.011   0.005   0.005
 1997 226    79  16.90  31.50  23.50  4.134  3.527  0.965  4.127  3.527  0.587  0.000  0.013  325.92  242.09  115.15  122.15    0.00    4.79   0.454   0.084   0.029   0.011   0.005   0.005
 1997 227    80   8.70  27.40  23.40  2.035  1.625  0.468  2.031  1.625  0.396  0.000  0.010  327.95  244.12  116.77  122.54    0.00    4.80   0.329   0.042   0.015   0.006   0.002   0.002
 1997 228    81  18.30  34.00  21.20  4.526  3.616  1.043  4.518  3.616  0.794  0.000  0.108  332.48  248.64  120.39  123.34    0.00    4.91   0.688   0.065   0.024   0.009   0.004   0.004
 1997 229    82  13.20  30.50  23.50  3.197  2.562  0.728  3.191  2.562  0.548  0.000  0.081  335.67  251.83  122.95  123.88    0.00    4.99   0.469   0.047   0.018   0.007   0.003   0.003
 1997 230    83  17.50  34.00  22.50  4.364  3.502  0.988  4.356  3.502  0.794  0.000  0.061  340.04  256.19  126.45  124.68    0.00    5.05   0.676   0.079   0.025   0.008   0.003   0.003
 1997 231    84  20.40  30.50  21.50  4.879  3.924  1.094  4.870  3.924  0.831  0.000  0.115  344.92  261.06  130.38  125.51    0.00    5.17   0.253   0.189   0.155   0.089   0.056   0.088
 1997 232    85  19.40  29.50  22.50  4.621  3.725  1.027  4.612  3.725  0.801  0.000  0.086  349.54  265.67  134.10  126.31    0.00    5.26   0.238   0.174   0.147   0.090   0.061   0.091
 1997 233    86  26.20  33.50  23.80  6.565  5.305  1.447  6.554  5.305  1.185  0.000  0.064  356.10  272.22  139.41  127.49    0.00    5.32   0.364   0.270   0.210   0.129   0.085   0.127
 1997 234    87  15.50  33.50  23.50  3.879  3.142  0.846  3.872  3.142  0.614  0.000  0.116  359.98  276.09  142.55  128.11    0.00    5.44   0.189   0.139   0.107   0.067   0.045   0.066
 1997 235    88   6.80  32.50  22.50  1.672  1.356  0.363  1.669  1.356  0.263  0.000  0.050  361.65  277.76  143.90  128.37    0.00    5.49   0.079   0.057   0.046   0.030   0.020   0.030
 1997 236    89  15.90  31.50  22.00  3.854  3.118  0.845  3.847  3.118  0.653  0.000  0.076  365.51  281.61  147.02  129.02    0.00    5.56   0.196   0.139   0.115   0.075   0.051   0.076
 1997 237    90  21.80  32.40  23.00  5.370  4.348  1.176  5.361  4.348  0.956  0.000  0.056  370.88  286.97  151.37  129.98    0.00    5.62   0.304   0.210   0.162   0.105   0.071   0.105
 1997 238    91  15.70  31.50  22.20  3.813  3.091  0.831  3.806  3.091  0.599  0.000  0.116  374.69  290.77  154.46  130.58    0.00    5.73   0.191   0.131   0.101   0.066   0.044   0.066
 1997 239    92  17.60  32.50  23.00  4.341  3.520  0.947  4.334  3.520  0.723  0.000  0.091  379.03  295.11  157.98  131.30    0.00    5.82   0.237   0.157   0.120   0.078   0.052   0.079
 1997 240    93   9.80  32.50  20.50  2.377  1.927  0.518  2.372  1.927  0.372  0.000  0.073  381.41  297.48  159.91  131.67    0.00    5.90   0.120   0.079   0.063   0.041   0.027   0.041
 1997 241    94  22.90  31.20  22.50  5.553  4.500  1.215  5.543  4.500  0.937  0.000  0.106  386.96  303.02  164.41  132.61    0.00    6.00   0.305   0.210   0.155   0.100   0.067   0.100
 1997 242    95  21.00  30.00  23.40  5.062  4.104  1.105  5.052  4.104  0.837  0.000  0.111  392.02  308.07  168.51  133.45    0.00    6.11   0.264   0.187   0.141   0.091   0.062   0.091
 1997 243    96  22.00  31.00  22.70  5.330  4.324  1.162  5.320  4.324  0.914  0.000  0.082  397.35  313.39  172.84  134.36    0.00    6.20   0.279   0.198   0.158   0.103   0.070   0.105
 1997 244    97  18.50  33.00  23.00  4.585  3.721  0.998  4.577  3.721  0.795  0.000  0.060  401.94  317.97  176.56  135.16    0.00    6.26   0.678   0.079   0.023   0.008   0.003   0.003
 1997 245    98  18.00  30.50  23.50  4.359  3.538  0.949  4.351  3.538  0.768  0.000  0.044  406.30  322.32  180.10  135.93    0.00    6.30   0.649   0.080   0.024   0.008   0.004   0.003
 1997 246    99  11.20  28.60  23.00  2.647  2.148  0.577  2.642  2.148  0.461  0.000  0.033  408.94  324.96  182.24  136.39    0.00    6.33   0.386   0.050   0.015   0.005   0.002   0.002
 1997 247   100  11.60  30.00  23.50  2.793  2.265  0.612  2.788  2.265  0.438  0.000  0.085  411.74  327.75  184.51  136.82    0.00    6.42   0.379   0.040   0.012   0.004   0.002   0.002
 1997 248   101  18.80  32.50  22.50  4.620  3.743  1.017  4.612  3.743  0.758  0.000  0.111  416.36  332.36  188.25  137.58    0.00    6.53   0.256   0.168   0.121   0.077   0.052   0.083
 1997 249   102  14.00  31.50  22.00  3.394  2.749  0.748  3.388  2.749  0.530  0.000  0.109  419.75  335.75  191.00  138.11    0.00    6.64   0.169   0.124   0.089   0.055   0.036   0.057
 1997 250   103  17.10  30.50  22.00  4.100  3.318  0.907  4.092  3.318  0.685  0.000  0.089  423.85  339.85  194.32  138.80    0.00    6.73   0.212   0.152   0.118   0.078   0.049   0.077
 1997 251   104  23.30  31.50  23.00  5.685  4.598  1.262  5.674  4.598  1.011  0.000  0.065  429.54  345.52  198.92  139.81    0.00    6.79   0.313   0.230   0.183   0.112   0.069   0.104
 1997 252   105  12.20  31.50  23.50  2.989  2.417  0.664  2.984  2.417  0.469  0.000  0.098  432.53  348.50  201.33  140.28    0.00    6.89   0.144   0.108   0.087   0.054   0.032   0.044
 1997 253   106  15.70  30.50  22.50  3.780  3.054  0.844  3.773  3.054  0.599  0.000  0.120  436.31  352.28  204.39  140.88    0.00    7.01   0.184   0.131   0.108   0.073   0.044   0.058
 1997 254   107  15.20  29.00  22.50  3.601  2.906  0.807  3.594  2.906  0.568  0.000  0.120  439.91  355.87  207.29  141.44    0.00    7.13   0.173   0.120   0.102   0.068   0.044   0.061
 1997 255   108  20.80  31.50  22.50  5.058  4.080  1.138  5.049  4.080  0.878  0.000  0.091  444.97  360.92  211.37  142.32    0.00    7.22   0.263   0.184   0.157   0.106   0.070   0.099
 1997 256   109  21.50  33.50  24.00  5.392  4.348  1.217  5.383  4.348  0.969  0.000  0.066  450.36  366.30  215.72  143.29    0.00    7.29   0.288   0.210   0.176   0.119   0.074   0.102
 1997 257   110  16.50  29.50  21.50  3.901  3.144  0.882  3.894  3.144  0.618  0.000  0.132  454.26  370.20  218.87  143.91    0.00    7.42   0.184   0.134   0.113   0.075   0.047   0.065
 1997 258   111  20.80  32.50  23.00  5.129  4.130  1.164  5.120  4.130  0.887  0.000  0.103  459.39  375.32  223.00  144.80    0.00    7.52   0.274   0.191   0.156   0.105   0.068   0.093
 1997 259   112  19.80  31.00  21.00  4.741  3.815  1.079  4.732  3.815  0.774  0.000  0.142  464.13  380.05  226.81  145.57    0.00    7.66   0.241   0.163   0.134   0.090   0.060   0.085
 1997 260   113  21.00  31.50  22.00  5.088  4.093  1.161  5.079  4.093  0.883  0.000  0.102  469.22  385.13  230.91  146.45    0.00    7.77   0.276   0.198   0.151   0.099   0.066   0.094
 1997 261   114   9.10  26.50  22.00  2.089  1.679  0.478  2.085  1.679  0.333  0.000  0.072  471.31  387.21  232.58  146.79    0.00    7.84   0.103   0.077   0.059   0.036   0.024   0.033
 1997 262   115  16.30  30.00  22.50  3.903  3.133  0.899  3.896  3.133  0.626  0.000  0.136  475.21  391.11  235.72  147.41    0.00    7.98   0.190   0.138   0.115   0.071   0.046   0.066
 1997 263   116  14.60  32.00  23.50  3.594  2.883  0.832  3.588  2.883  0.599  0.000  0.106  478.80  394.69  238.60  148.01    0.00    8.08   0.179   0.129   0.109   0.069   0.046   0.067
 1997 264   117  24.50  33.50  24.00  6.145  4.924  1.428  6.134  4.924  1.134  0.000  0.076  484.95  400.83  243.52  149.15    0.00    8.16   0.337   0.239   0.205   0.133   0.089   0.132
 1997 265   118  19.70  33.50  24.50  4.956  3.970  1.154  4.948  3.970  0.923  0.000  0.055  489.91  405.78  247.49  150.07    0.00    8.21   0.281   0.206   0.164   0.103   0.068   0.101
 1997 266   119   7.60  28.00  21.00  1.761  1.410  0.411  1.758  1.410  0.285  0.000  0.063  491.67  407.53  248.90  150.35    0.00    8.28   0.088   0.064   0.050   0.031   0.021   0.031
 1997 267   120  19.50  32.00  22.40  4.764  3.809  1.118  4.755  3.809  0.820  0.000  0.127  496.43  412.29  252.71  151.17    0.00    8.40   0.263   0.179   0.141   0.089   0.059   0.087
 1997 268   121   9.30  28.50  21.50  2.175  1.738  0.512  2.171  1.738  0.354  0.000  0.079  498.61  414.46  254.45  151.53    0.00    8.48   0.113   0.074   0.061   0.040   0.027   0.040
 1997 269   122  16.00  33.50  21.70  3.951  3.154  0.935  3.944  3.154  0.692  0.000  0.099  502.56  418.40  257.60  152.22    0.00    8.58   0.214   0.144   0.121   0.079   0.053   0.080
 1997 270   123  24.70  34.50  24.50  6.279  5.009  1.489  6.269  5.009  1.188  0.000  0.071  508.84  424.67  262.61  153.41    0.00    8.65   0.355   0.254   0.212   0.141   0.099   0.128

*DSSAT Cropping System Model Ver. 4.5.1.023 -Stub         NOV 08, 2014; 00:45:26
                                                                                
*RUN   3        : 97 DATE2 CHINESE          CRGRO045 GHNY9701    3              
 MODEL          : CRGRO045 - Peanut                                             
 EXPERIMENT     : GHNY9701 PN 1997 VARIETY X PLANTING DATE EXPERIMENT           
 DATA PATH      :                                                               
 TREATMENT  3   : 97 DATE2 CHINESE          CRGRO045                            
  
!                                                                                                                                                Soil evaporation (mm/d) by soil depth (cm):
!                                                                                                                                                0-5    5-15   15-30   30-45   45-60   60-90
@YEAR DOY   DAS   SRAA  TMAXA  TMINA   EOAA   EOPA   EOSA   ETAA   EPAA   ESAA   EFAA   EMAA    EOAC    ETAC    EPAC    ESAC    EFAC    EMAC    ES1D    ES2D    ES3D    ES4D    ES5D    ES6D    
 1997 176     1  16.50  31.00  23.50  4.228  0.000  4.228  3.716  0.000  3.672  0.000  0.044    4.23    3.72    0.00    3.67    0.00    0.04   0.973   0.777   0.661   0.448   0.317   0.496
 1997 177     2  24.10  31.50  23.00  6.163  0.000  6.163  4.895  0.000  4.861  0.000  0.034   10.39    8.61    0.00    8.53    0.00    0.08   1.212   1.034   0.894   0.609   0.434   0.679
 1997 178     3  21.80  32.00  23.00  5.577  0.000  5.577  0.881  0.000  0.855  0.000  0.026   15.97    9.49    0.00    9.39    0.00    0.10   0.694   0.106   0.033   0.012   0.005   0.005
 1997 179     4  13.10  32.00  21.20  3.300  0.000  3.300  2.900  0.000  2.880  0.000  0.020   19.27   12.39    0.00   12.27    0.00    0.12   0.759   0.622   0.532   0.351   0.246   0.369
 1997 180     5  23.00  30.70  23.00  5.924  0.000  5.924  5.206  0.000  5.117  0.000  0.090   25.19   17.60    0.00   17.38    0.00    0.21   1.506   1.069   0.907   0.590   0.418   0.627
 1997 181     6  16.40  29.50  23.40  4.143  0.000  4.143  3.641  0.000  3.572  0.000  0.069   29.34   21.24    0.00   20.96    0.00    0.28   1.063   0.743   0.626   0.410   0.292   0.438
 1997 182     7  19.30  29.50  25.00  4.972  0.000  4.972  4.370  0.000  4.277  0.000  0.093   34.31   25.61    0.00   25.23    0.00    0.38   1.280   0.878   0.743   0.489   0.351   0.535
 1997 183     8   8.80  29.50  23.50  2.226  0.000  2.226  1.199  0.000  1.127  0.000  0.072   36.53   26.81    0.00   26.36    0.00    0.45   0.955   0.115   0.035   0.012   0.005   0.005
 1997 184     9   9.50  27.50  20.50  2.291  0.000  2.291  1.095  0.000  1.040  0.000  0.055   38.82   27.90    0.00   27.40    0.00    0.50   0.868   0.114   0.035   0.012   0.005   0.005
 1997 185    10   9.70  29.00  21.50  2.387  0.021  2.375  1.023  0.021  0.960  0.000  0.042   41.21   28.93    0.02   28.36    0.00    0.54   0.789   0.114   0.035   0.012   0.005   0.005
 1997 186    11  16.60  29.70  23.50  4.161  0.043  4.137  1.022  0.043  0.947  0.000  0.032   45.37   29.95    0.06   29.31    0.00    0.58   0.777   0.113   0.035   0.012   0.005   0.005
 1997 187    12  15.70  29.80  22.70  3.925  0.050  3.897  1.075  0.050  0.935  0.000  0.091   49.30   31.02    0.11   30.24    0.00    0.67   0.765   0.112   0.035   0.012   0.005   0.005
 1997 188    13  16.40  29.00  22.50  4.046  0.066  4.009  0.999  0.066  0.863  0.000  0.070   53.34   32.02    0.18   31.10    0.00    0.74   0.695   0.111   0.034   0.012   0.005   0.005
 1997 189    14  21.50  30.50  22.50  5.374  0.112  5.311  0.963  0.112  0.798  0.000  0.053   58.72   32.99    0.29   31.90    0.00    0.79   0.631   0.111   0.034   0.012   0.005   0.005
 1997 190    15  18.90  31.50  22.50  4.761  0.123  4.692  0.902  0.123  0.738  0.000  0.041   63.48   33.89    0.41   32.64    0.00    0.83   0.571   0.110   0.034   0.012   0.005   0.005
 1997 191    16  11.40  27.50  23.30  2.760  0.087  2.711  2.469  0.087  2.351  0.000  0.031   66.24   36.36    0.50   34.99    0.00    0.86   0.599   0.526   0.433   0.283   0.203   0.306
 1997 192    17  11.60  31.00  22.00  2.971  0.110  2.908  2.665  0.110  2.465  0.000  0.091   69.21   39.02    0.61   37.46    0.00    0.95   0.737   0.519   0.427   0.279   0.200   0.304
 1997 193    18  19.80  27.50  23.00  4.883  0.208  4.765  4.395  0.208  4.118  0.000  0.070   74.09   43.42    0.82   41.57    0.00    1.02   1.219   0.854   0.718   0.471   0.339   0.517
 1997 194    19  21.50  31.00  23.50  5.514  0.268  5.361  1.510  0.268  1.148  0.000  0.093   79.61   44.93    1.09   42.72    0.00    1.12   0.976   0.115   0.035   0.012   0.005   0.005
 1997 195    20  18.10  32.00  24.50  4.703  0.256  4.556  4.260  0.256  3.932  0.000  0.072   84.31   49.19    1.34   46.66    0.00    1.19   1.125   0.839   0.709   0.456   0.323   0.480
 1997 196    21  10.20  29.50  22.00  2.561  0.153  2.473  2.326  0.153  2.079  0.000  0.094   86.87   51.51    1.50   48.73    0.00    1.28   0.602   0.441   0.369   0.239   0.173   0.256
 1997 197    22   7.10  25.50  21.00  1.695  0.114  1.629  1.546  0.114  1.348  0.000  0.083   88.57   53.06    1.61   50.08    0.00    1.37   0.388   0.272   0.234   0.159   0.119   0.176
 1997 198    23  15.50  29.50  22.50  3.895  0.287  3.729  3.564  0.287  3.186  0.000  0.091   92.46   56.62    1.90   53.27    0.00    1.46   0.926   0.649   0.557   0.372   0.272   0.410
 1997 199    24  16.20  28.50  22.00  3.991  0.334  3.797  3.670  0.334  3.267  0.000  0.070   96.45   60.29    2.23   56.54    0.00    1.53   0.912   0.674   0.587   0.386   0.280   0.427
 1997 200    25  17.40  30.30  22.20  4.359  0.411  4.119  4.030  0.411  3.566  0.000  0.054  100.81   64.32    2.64   60.10    0.00    1.58   0.943   0.737   0.654   0.434   0.315   0.482
 1997 201    26  12.00  28.50  20.60  2.902  0.308  2.720  1.313  0.308  0.964  0.000  0.041  103.71   65.64    2.95   61.07    0.00    1.62   0.801   0.107   0.034   0.012   0.005   0.005
 1997 202    27   7.10  29.50  20.60  1.732  0.204  1.611  1.194  0.204  0.927  0.000  0.063  105.45   66.83    3.15   61.99    0.00    1.68   0.765   0.106   0.034   0.012   0.005   0.005
 1997 203    28  23.10  30.50  22.00  5.745  0.740  5.303  1.702  0.740  0.878  0.000  0.083  111.19   68.53    3.89   62.87    0.00    1.77   0.717   0.105   0.034   0.012   0.005   0.005
 1997 204    29  16.80  32.00  22.50  4.245  0.607  3.880  1.679  0.607  1.009  0.000  0.064  115.44   70.21    4.50   63.88    0.00    1.83   0.850   0.104   0.033   0.012   0.005   0.005
 1997 205    30  15.90  31.70  22.30  4.046  0.648  3.651  1.917  0.648  1.176  0.000  0.093  119.48   72.13    5.15   65.06    0.00    1.93   1.017   0.104   0.033   0.012   0.005   0.005
 1997 206    31  20.80  30.00  21.50  5.160  0.919  4.595  2.119  0.919  1.118  0.000  0.082  124.64   74.25    6.07   66.17    0.00    2.01   0.960   0.103   0.033   0.012   0.005   0.005
 1997 207    32  20.70  32.00  23.00  5.277  1.034  4.634  2.112  1.034  1.015  0.000  0.063  129.92   76.36    7.10   67.19    0.00    2.07   0.859   0.101   0.032   0.012   0.005   0.005
 1997 208    33  18.60  32.50  23.50  4.763  1.022  4.121  1.989  1.022  0.919  0.000  0.048  134.68   78.35    8.12   68.11    0.00    2.12   0.766   0.099   0.032   0.011   0.005   0.005
 1997 209    34  21.20  32.00  23.00  5.360  1.268  4.552  2.137  1.268  0.832  0.000  0.037  140.04   80.48    9.39   68.94    0.00    2.15   0.682   0.096   0.032   0.011   0.005   0.005
 1997 210    35  12.60  31.00  23.50  3.152  0.806  2.632  1.830  0.806  0.995  0.000  0.028  143.19   82.31   10.20   69.93    0.00    2.18   0.847   0.096   0.031   0.011   0.005   0.005
 1997 211    36   9.80  29.50  22.00  2.415  0.674  1.974  2.408  0.674  1.643  0.000  0.091  145.61   84.72   10.87   71.58    0.00    2.27   0.520   0.331   0.272   0.182   0.132   0.206
 1997 212    37   7.80  27.00  21.50  1.871  0.554  1.497  1.870  0.554  1.241  0.000  0.074  147.48   86.59   11.43   72.82    0.00    2.35   0.375   0.260   0.214   0.139   0.099   0.154
 1997 213    38  10.80  27.60  22.60  2.615  0.810  2.053  2.614  0.810  1.746  0.000  0.057  150.10   89.21   12.24   74.56    0.00    2.41   0.522   0.361   0.303   0.199   0.143   0.219
 1997 214    39  21.20  31.00  22.60  5.314  1.817  4.073  3.102  1.817  1.192  0.000  0.093  155.41   92.31   14.05   75.76    0.00    2.50   1.019   0.116   0.035   0.012   0.005   0.005
 1997 215    40  18.60  33.40  22.30  4.749  1.727  3.550  2.869  1.727  1.070  0.000  0.071  160.16   95.18   15.78   76.83    0.00    2.57   0.901   0.112   0.034   0.012   0.005   0.005
 1997 216    41  11.80  29.50  24.20  2.918  1.139  2.112  2.155  1.139  0.961  0.000  0.055  163.08   97.33   16.92   77.79    0.00    2.62   0.796   0.109   0.033   0.012   0.005   0.005
 1997 217    42  13.50  30.00  22.50  3.305  1.272  2.312  3.302  1.272  1.988  0.000  0.042  166.38  100.63   18.19   79.78    0.00    2.67   0.534   0.422   0.360   0.242   0.176   0.253
 1997 218    43   7.50  28.00  21.00  1.794  0.728  1.212  1.793  0.728  0.972  0.000  0.092  168.18  102.43   18.92   80.75    0.00    2.76   0.285   0.201   0.171   0.113   0.082   0.120
 1997 219    44  12.60  30.00  22.50  3.102  1.310  2.038  3.099  1.310  1.718  0.000  0.071  171.28  105.53   20.23   82.47    0.00    2.83   0.505   0.352   0.301   0.199   0.144   0.217
 1997 220    45  21.90  30.40  21.10  5.346  2.373  3.380  5.340  2.373  2.914  0.000  0.054  176.63  110.87   22.60   85.38    0.00    2.88   0.831   0.596   0.516   0.344   0.249   0.378
 1997 221    46  14.10  31.40  23.00  3.513  1.779  2.131  2.860  1.779  1.040  0.000  0.042  180.14  113.73   24.38   86.42    0.00    2.93   0.876   0.108   0.034   0.012   0.005   0.005
 1997 222    47  21.00  30.00  23.00  5.138  2.721  3.031  3.686  2.721  0.933  0.000  0.032  185.28  117.41   27.10   87.35    0.00    2.96   0.773   0.104   0.033   0.012   0.005   0.005
 1997 223    48  21.40  30.80  22.50  5.245  2.896  3.009  3.741  2.896  0.821  0.000  0.025  190.52  121.15   30.00   88.17    0.00    2.98   0.667   0.099   0.032   0.011   0.005   0.005
 1997 224    49  16.70  30.00  22.40  4.044  2.321  2.254  3.055  2.321  0.716  0.000  0.019  194.56  124.21   32.32   88.89    0.00    3.00   0.569   0.094   0.031   0.011   0.005   0.005
 1997 225    50  17.50  30.50  23.60  4.287  2.548  2.323  3.191  2.548  0.628  0.000  0.015  198.85  127.40   34.87   89.52    0.00    3.02   0.487   0.090   0.030   0.011   0.005   0.005
 1997 226    51  16.90  31.50  23.50  4.174  2.568  2.194  3.149  2.568  0.570  0.000  0.011  203.02  130.55   37.43   90.09    0.00    3.03   0.435   0.085   0.029   0.011   0.005   0.005
 1997 227    52   8.70  27.40  23.40  2.052  1.303  1.046  2.035  1.303  0.723  0.000  0.009  205.08  132.58   38.74   90.81    0.00    3.04   0.594   0.079   0.028   0.011   0.005   0.005
 1997 228    53  18.30  34.00  21.20  4.581  2.967  2.290  3.926  2.967  0.866  0.000  0.093  209.66  136.51   41.70   91.68    0.00    3.13   0.741   0.076   0.028   0.011   0.005   0.005
 1997 229    54  13.20  30.50  23.50  3.229  2.146  1.570  2.972  2.146  0.756  0.000  0.071  212.89  139.48   43.85   92.43    0.00    3.20   0.637   0.071   0.027   0.011   0.005   0.005
 1997 230    55  17.50  34.00  22.50  4.402  2.988  2.087  4.095  2.988  1.053  0.000  0.054  217.29  143.58   46.84   93.48    0.00    3.25   0.891   0.105   0.034   0.012   0.005   0.005
 1997 231    56  20.40  30.50  21.50  4.944  2.941  2.280  4.937  2.941  1.900  0.000  0.097  222.23  148.51   49.78   95.38    0.00    3.35   0.556   0.398   0.338   0.219   0.154   0.235
 1997 232    57  19.40  29.50  22.50  4.673  2.827  2.101  4.666  2.827  1.765  0.000  0.074  226.91  153.18   52.61   97.15    0.00    3.42   0.499   0.367   0.315   0.207   0.148   0.228
 1997 233    58  26.20  33.50  23.80  6.631  4.079  2.906  6.622  4.079  2.487  0.000  0.056  233.54  159.80   56.68   99.64    0.00    3.48   0.728   0.533   0.435   0.283   0.202   0.307
 1997 234    59  15.50  33.50  23.50  3.921  2.453  1.672  3.916  2.453  1.365  0.000  0.098  237.46  163.72   59.14  101.00    0.00    3.58   0.404   0.286   0.237   0.155   0.112   0.170
 1997 235    60   6.80  32.50  22.50  1.688  1.070  0.703  1.685  1.070  0.540  0.000  0.075  239.15  165.40   60.21  101.54    0.00    3.65   0.156   0.112   0.094   0.063   0.046   0.069
 1997 236    61  15.90  31.50  22.00  3.890  2.685  1.609  3.884  2.685  1.141  0.000  0.057  243.04  169.29   62.89  102.68    0.00    3.71   0.969   0.115   0.034   0.012   0.005   0.005
 1997 237    62  21.80  32.40  23.00  5.412  3.484  2.197  5.404  3.484  1.877  0.000  0.044  248.45  174.69   66.38  104.56    0.00    3.75   0.553   0.395   0.324   0.214   0.154   0.237
 1997 238    63  15.70  31.50  22.20  3.848  2.506  1.529  3.842  2.506  1.238  0.000  0.099  252.30  178.53   68.88  105.80    0.00    3.85   0.373   0.256   0.213   0.140   0.101   0.155
 1997 239    64  17.60  32.50  23.00  4.377  2.875  1.712  4.370  2.875  1.420  0.000  0.075  256.67  182.90   71.76  107.22    0.00    3.93   0.441   0.291   0.241   0.159   0.114   0.175
 1997 240    65   9.80  32.50  20.50  2.397  1.588  0.922  2.393  1.588  0.703  0.000  0.102  259.07  185.30   73.35  107.92    0.00    4.03   0.214   0.144   0.121   0.080   0.057   0.088
 1997 241    66  22.90  31.20  22.50  5.596  3.718  2.143  5.587  3.718  1.792  0.000  0.078  264.67  190.88   77.06  109.71    0.00    4.11   0.552   0.375   0.306   0.200   0.143   0.217
 1997 242    67  21.00  30.00  23.40  5.102  3.415  1.924  5.094  3.415  1.575  0.000  0.103  269.77  195.98   80.48  111.29    0.00    4.21   0.471   0.327   0.272   0.179   0.129   0.196
 1997 243    68  22.00  31.00  22.70  5.366  4.123  1.996  5.358  4.123  1.156  0.000  0.079  275.13  201.33   84.60  112.44    0.00    4.29   0.986   0.114   0.034   0.012   0.005   0.005
 1997 244    69  18.50  33.00  23.00  4.611  3.538  1.693  4.604  3.538  1.006  0.000  0.060  279.75  205.94   88.14  113.45    0.00    4.35   0.845   0.107   0.033   0.011   0.005   0.005
 1997 245    70  18.00  30.50  23.50  4.381  3.451  1.592  4.373  3.451  0.877  0.000  0.045  284.13  210.31   91.59  114.33    0.00    4.39   0.724   0.101   0.031   0.011   0.005   0.005
 1997 246    71  11.20  28.60  23.00  2.658  1.836  0.958  2.654  1.836  0.784  0.000  0.034  286.78  212.97   93.43  115.11    0.00    4.43   0.637   0.095   0.030   0.011   0.005   0.005
 1997 247    72  11.60  30.00  23.50  2.804  1.921  1.009  2.800  1.921  0.802  0.000  0.076  289.59  215.77   95.35  115.91    0.00    4.51   0.683   0.077   0.025   0.009   0.004   0.004
 1997 248    73  18.80  32.50  22.50  4.647  3.186  1.671  4.640  3.186  1.363  0.000  0.091  294.24  220.41   98.53  117.27    0.00    4.60   0.432   0.278   0.224   0.149   0.107   0.173
 1997 249    74  14.00  31.50  22.00  3.417  2.349  1.222  3.411  2.349  0.965  0.000  0.098  297.65  223.82  100.88  118.24    0.00    4.69   0.293   0.206   0.166   0.107   0.074   0.119
 1997 250    75  17.10  30.50  22.00  4.125  2.837  1.475  4.118  2.837  1.207  0.000  0.074  301.78  227.93  103.72  119.45    0.00    4.77   0.357   0.254   0.209   0.139   0.095   0.152
 1997 251    76  23.30  31.50  23.00  5.717  3.935  2.041  5.708  3.935  1.717  0.000  0.056  307.50  233.64  107.65  121.16    0.00    4.82   0.510   0.367   0.304   0.196   0.134   0.206
 1997 252    77  12.20  31.50  23.50  3.008  2.073  1.071  3.003  2.073  0.822  0.000  0.108  310.50  236.65  109.73  121.99    0.00    4.93   0.244   0.176   0.147   0.095   0.065   0.094
 1997 253    78  15.70  30.50  22.50  3.805  2.622  1.355  3.798  2.622  1.085  0.000  0.091  314.31  240.44  112.35  123.07    0.00    5.02   0.331   0.220   0.187   0.126   0.091   0.129
 1997 254    79  15.20  29.00  22.50  3.624  2.498  1.291  3.618  2.498  1.010  0.000  0.109  317.93  244.06  114.85  124.08    0.00    5.13   0.301   0.205   0.176   0.117   0.085   0.127
 1997 255    80  20.80  31.50  22.50  5.087  3.508  1.812  5.079  3.508  1.489  0.000  0.082  323.02  249.14  118.36  125.57    0.00    5.22   0.436   0.300   0.261   0.174   0.125   0.193
 1997 256    81  21.50  33.50  24.00  5.421  3.740  1.931  5.413  3.740  1.612  0.000  0.062  328.44  254.55  122.10  127.18    0.00    5.28   0.469   0.333   0.285   0.191   0.136   0.199
 1997 257    82  16.50  29.50  21.50  3.925  2.708  1.398  3.918  2.708  1.099  0.000  0.112  332.37  258.47  124.80  128.28    0.00    5.39   0.322   0.227   0.193   0.129   0.092   0.136
 1997 258    83  20.80  32.50  23.00  5.157  3.558  1.838  5.149  3.558  1.507  0.000  0.084  337.52  263.62  128.36  129.79    0.00    5.47   0.458   0.308   0.259   0.173   0.124   0.185
 1997 259    84  19.80  31.00  21.00  4.770  3.290  1.700  4.761  3.290  1.356  0.000  0.115  342.29  268.38  131.65  131.14    0.00    5.59   0.408   0.276   0.234   0.155   0.112   0.172
 1997 260    85  21.00  31.50  22.00  5.116  3.529  1.825  5.107  3.529  1.493  0.000  0.086  347.41  273.49  135.18  132.64    0.00    5.67   0.451   0.317   0.255   0.167   0.120   0.183
 1997 261    86   9.10  26.50  22.00  2.102  1.449  0.751  2.098  1.449  0.547  0.000  0.102  349.51  275.59  136.63  133.18    0.00    5.78   0.166   0.119   0.095   0.061   0.043   0.064
 1997 262    87  16.30  30.00  22.50  3.928  2.701  1.412  3.921  2.701  1.114  0.000  0.106  353.44  279.51  139.33  134.30    0.00    5.88   0.331   0.233   0.196   0.127   0.091   0.137
 1997 263    88  14.60  32.00  23.50  3.614  2.479  1.307  3.609  2.479  1.050  0.000  0.079  357.05  283.12  141.81  135.35    0.00    5.96   0.307   0.216   0.185   0.121   0.087   0.134
 1997 264    89  24.50  33.50  24.00  6.178  4.229  2.246  6.169  4.229  1.880  0.000  0.059  363.23  289.29  146.04  137.23    0.00    6.02   0.536   0.383   0.332   0.222   0.160   0.247
 1997 265    90  19.70  33.50  24.50  4.981  3.408  1.814  4.973  3.408  1.522  0.000  0.044  368.21  294.26  149.45  138.75    0.00    6.06   0.445   0.322   0.266   0.174   0.124   0.190
 1997 266    91   7.60  28.00  21.00  1.772  1.211  0.646  1.769  1.211  0.469  0.000  0.089  369.98  296.03  150.66  139.22    0.00    6.15   0.139   0.098   0.082   0.053   0.038   0.058
 1997 267    92  19.50  32.00  22.40  4.791  3.269  1.757  4.783  3.269  1.421  0.000  0.094  374.77  300.81  153.93  140.64    0.00    6.25   0.440   0.292   0.243   0.159   0.114   0.173
 1997 268    93   9.30  28.50  21.50  2.188  1.490  0.806  2.184  1.490  0.583  0.000  0.112  376.96  303.00  155.42  141.22    0.00    6.36   0.176   0.118   0.100   0.066   0.048   0.073
 1997 269    94  16.00  33.50  21.70  3.973  2.701  1.470  3.967  2.701  1.182  0.000  0.084  380.94  306.96  158.12  142.40    0.00    6.44   0.353   0.239   0.205   0.136   0.098   0.151
 1997 270    95  24.70  34.50  24.50  6.313  4.286  2.345  6.304  4.286  1.956  0.000  0.062  387.25  313.27  162.40  144.36    0.00    6.50   0.572   0.401   0.341   0.228   0.168   0.246
 1997 271    96  24.90  32.50  20.00  6.051  4.105  2.250  6.041  4.105  1.814  0.000  0.122  393.30  319.31  166.51  146.17    0.00    6.63   0.527   0.373   0.318   0.212   0.155   0.230
 1997 272    97  21.90  34.00  24.00  5.550  3.764  2.067  5.541  3.764  1.688  0.000  0.090  398.85  324.85  170.27  147.86    0.00    6.72   0.503   0.340   0.292   0.195   0.142   0.216
 1997 273    98  18.80  33.00  23.00  4.687  3.177  1.748  4.680  3.177  1.377  0.000  0.126  403.54  329.53  173.45  149.24    0.00    6.84   0.414   0.273   0.234   0.159   0.117   0.179
 1997 274    99  20.20  33.50  25.00  5.127  3.474  1.915  5.120  3.474  1.553  0.000  0.093  408.66  334.65  176.92  150.79    0.00    6.93   0.452   0.305   0.266   0.183   0.135   0.210
 1997 275   100  24.50  34.00  25.00  6.246  4.231  2.335  6.237  4.231  1.938  0.000  0.068  414.91  340.89  181.15  152.73    0.00    7.00   0.579   0.407   0.328   0.218   0.159   0.246
 1997 276   101  15.10  28.00  20.00  3.493  2.365  1.307  3.487  2.365  0.997  0.000  0.125  418.40  344.37  183.52  153.73    0.00    7.13   0.297   0.210   0.173   0.112   0.080   0.125
 1997 277   102  18.10  32.00  20.00  4.370  2.956  1.638  4.363  2.956  1.314  0.000  0.092  422.77  348.74  186.48  155.04    0.00    7.22   0.383   0.274   0.229   0.151   0.109   0.169

*DSSAT Cropping System Model Ver. 4.5.1.023 -Stub         NOV 08, 2014; 00:45:26
                                                                                
*RUN   4        : 97 DATE2 F-MIX            CRGRO045 GHNY9701    4              
 MODEL          : CRGRO045 - Peanut                                             
 EXPERIMENT     : GHNY9701 PN 1997 VARIETY X PLANTING DATE EXPERIMENT           
 DATA PATH      :                                                               
 TREATMENT  4   : 97 DATE2 F-MIX            CRGRO045                            
  
!                                                                                                                                                Soil evaporation (mm/d) by soil depth (cm):
!                                                                                                                                                0-5    5-15   15-30   30-45   45-60   60-90
@YEAR DOY   DAS   SRAA  TMAXA  TMINA   EOAA   EOPA   EOSA   ETAA   EPAA   ESAA   EFAA   EMAA    EOAC    ETAC    EPAC    ESAC    EFAC    EMAC    ES1D    ES2D    ES3D    ES4D    ES5D    ES6D    
 1997 176     1  16.50  31.00  23.50  4.228  0.000  4.228  3.716  0.000  3.672  0.000  0.044    4.23    3.72    0.00    3.67    0.00    0.04   0.973   0.777   0.661   0.448   0.317   0.496
 1997 177     2  24.10  31.50  23.00  6.163  0.000  6.163  4.895  0.000  4.861  0.000  0.034   10.39    8.61    0.00    8.53    0.00    0.08   1.212   1.034   0.894   0.609   0.434   0.679
 1997 178     3  21.80  32.00  23.00  5.577  0.000  5.577  0.881  0.000  0.855  0.000  0.026   15.97    9.49    0.00    9.39    0.00    0.10   0.694   0.106   0.033   0.012   0.005   0.005
 1997 179     4  13.10  32.00  21.20  3.300  0.000  3.300  2.900  0.000  2.880  0.000  0.020   19.27   12.39    0.00   12.27    0.00    0.12   0.759   0.622   0.532   0.351   0.246   0.369
 1997 180     5  23.00  30.70  23.00  5.924  0.000  5.924  5.206  0.000  5.117  0.000  0.090   25.19   17.60    0.00   17.38    0.00    0.21   1.506   1.069   0.907   0.590   0.418   0.627
 1997 181     6  16.40  29.50  23.40  4.143  0.000  4.143  3.641  0.000  3.572  0.000  0.069   29.34   21.24    0.00   20.96    0.00    0.28   1.063   0.743   0.626   0.410   0.292   0.438
 1997 182     7  19.30  29.50  25.00  4.972  0.000  4.972  4.370  0.000  4.277  0.000  0.093   34.31   25.61    0.00   25.23    0.00    0.38   1.280   0.878   0.743   0.489   0.351   0.535
 1997 183     8   8.80  29.50  23.50  2.226  0.000  2.226  1.199  0.000  1.127  0.000  0.072   36.53   26.81    0.00   26.36    0.00    0.45   0.955   0.115   0.035   0.012   0.005   0.005
 1997 184     9   9.50  27.50  20.50  2.291  0.000  2.291  1.095  0.000  1.040  0.000  0.055   38.82   27.90    0.00   27.40    0.00    0.50   0.868   0.114   0.035   0.012   0.005   0.005
 1997 185    10   9.70  29.00  21.50  2.388  0.000  2.388  1.002  0.000  0.960  0.000  0.042   41.21   28.90    0.00   28.36    0.00    0.54   0.789   0.114   0.035   0.012   0.005   0.005
 1997 186    11  16.60  29.70  23.50  4.161  0.045  4.136  1.025  0.045  0.947  0.000  0.032   45.37   29.93    0.05   29.31    0.00    0.58   0.777   0.113   0.035   0.012   0.005   0.005
 1997 187    12  15.70  29.80  22.70  3.926  0.049  3.898  1.075  0.049  0.935  0.000  0.091   49.30   31.00    0.09   30.24    0.00    0.67   0.766   0.112   0.035   0.012   0.005   0.005
 1997 188    13  16.40  29.00  22.50  4.047  0.060  4.013  0.993  0.060  0.864  0.000  0.070   53.35   32.00    0.15   31.11    0.00    0.74   0.695   0.112   0.034   0.012   0.005   0.005
 1997 189    14  21.50  30.50  22.50  5.375  0.104  5.316  0.956  0.104  0.799  0.000  0.053   58.72   32.95    0.26   31.90    0.00    0.79   0.631   0.111   0.034   0.012   0.005   0.005
 1997 190    15  18.90  31.50  22.50  4.762  0.116  4.696  0.895  0.116  0.739  0.000  0.041   63.48   33.85    0.37   32.64    0.00    0.83   0.572   0.110   0.034   0.012   0.005   0.005
 1997 191    16  11.40  27.50  23.30  2.760  0.082  2.714  2.467  0.082  2.354  0.000  0.031   66.24   36.32    0.45   35.00    0.00    0.86   0.600   0.527   0.433   0.284   0.203   0.307
 1997 192    17  11.60  31.00  22.00  2.971  0.103  2.913  2.662  0.103  2.469  0.000  0.091   69.21   38.98    0.56   37.47    0.00    0.95   0.739   0.520   0.427   0.279   0.200   0.304
 1997 193    18  19.80  27.50  23.00  4.884  0.192  4.775  4.388  0.192  4.127  0.000  0.070   74.10   43.37    0.75   41.59    0.00    1.02   1.221   0.856   0.720   0.472   0.339   0.518
 1997 194    19  21.50  31.00  23.50  5.515  0.246  5.375  1.488  0.246  1.148  0.000  0.093   79.61   44.85    1.00   42.74    0.00    1.12   0.976   0.115   0.035   0.012   0.005   0.005
 1997 195    20  18.10  32.00  24.50  4.705  0.236  4.570  4.252  0.236  3.944  0.000  0.072   84.32   49.11    1.23   46.68    0.00    1.19   1.128   0.842   0.711   0.457   0.324   0.482
 1997 196    21  10.20  29.50  22.00  2.562  0.141  2.481  2.321  0.141  2.086  0.000  0.094   86.88   51.43    1.37   48.77    0.00    1.28   0.604   0.443   0.370   0.240   0.173   0.257
 1997 197    22   7.10  25.50  21.00  1.696  0.100  1.638  1.540  0.100  1.356  0.000  0.083   88.58   52.97    1.47   50.13    0.00    1.37   0.390   0.274   0.236   0.160   0.120   0.177
 1997 198    23  15.50  29.50  22.50  3.898  0.253  3.751  3.550  0.253  3.206  0.000  0.091   92.47   56.52    1.73   53.33    0.00    1.46   0.932   0.653   0.561   0.374   0.273   0.413
 1997 199    24  16.20  28.50  22.00  3.994  0.297  3.821  3.655  0.297  3.288  0.000  0.070   96.47   60.17    2.02   56.62    0.00    1.53   0.918   0.678   0.591   0.389   0.282   0.430
 1997 200    25  17.40  30.30  22.20  4.362  0.367  4.148  4.012  0.367  3.591  0.000  0.054  100.83   64.18    2.39   60.21    0.00    1.58   0.950   0.743   0.659   0.437   0.318   0.486
 1997 201    26  12.00  28.50  20.60  2.903  0.277  2.741  1.282  0.277  0.964  0.000  0.041  103.73   65.46    2.67   61.18    0.00    1.62   0.801   0.107   0.034   0.012   0.005   0.005
 1997 202    27   7.10  29.50  20.60  1.733  0.184  1.624  1.175  0.184  0.927  0.000  0.063  105.46   66.64    2.85   62.10    0.00    1.68   0.765   0.106   0.034   0.012   0.005   0.005
 1997 203    28  23.10  30.50  22.00  5.749  0.669  5.351  1.631  0.669  0.879  0.000  0.083  111.21   68.27    3.52   62.98    0.00    1.77   0.718   0.105   0.034   0.012   0.005   0.005
 1997 204    29  16.80  32.00  22.50  4.248  0.552  3.917  1.626  0.552  1.010  0.000  0.064  115.46   69.90    4.07   63.99    0.00    1.83   0.851   0.104   0.033   0.012   0.005   0.005
 1997 205    30  15.90  31.70  22.30  4.049  0.593  3.691  1.864  0.593  1.177  0.000  0.093  119.51   71.76    4.67   65.17    0.00    1.93   1.017   0.104   0.033   0.012   0.005   0.005
 1997 206    31  20.80  30.00  21.50  5.164  0.847  4.648  2.048  0.847  1.119  0.000  0.082  124.67   73.81    5.51   66.29    0.00    2.01   0.961   0.104   0.033   0.012   0.005   0.005
 1997 207    32  20.70  32.00  23.00  5.281  0.961  4.689  2.041  0.961  1.017  0.000  0.063  129.96   75.85    6.47   67.31    0.00    2.07   0.861   0.102   0.032   0.012   0.005   0.005
 1997 208    33  18.60  32.50  23.50  4.766  0.968  4.161  1.938  0.968  0.922  0.000  0.048  134.72   77.79    7.44   68.23    0.00    2.12   0.768   0.099   0.032   0.012   0.005   0.005
 1997 209    34  21.20  32.00  23.00  5.363  1.214  4.595  2.086  1.214  0.835  0.000  0.037  140.08   79.87    8.66   69.06    0.00    2.15   0.684   0.097   0.032   0.011   0.005   0.005
 1997 210    35  12.60  31.00  23.50  3.154  0.783  2.651  1.810  0.783  0.998  0.000  0.028  143.24   81.68    9.44   70.06    0.00    2.18   0.848   0.097   0.031   0.011   0.005   0.005
 1997 211    36   9.80  29.50  22.00  2.416  0.660  1.985  2.405  0.660  1.653  0.000  0.091  145.65   84.09   10.10   71.71    0.00    2.27   0.522   0.333   0.274   0.184   0.133   0.207
 1997 212    37   7.80  27.00  21.50  1.871  0.547  1.506  1.870  0.547  1.249  0.000  0.074  147.53   85.96   10.65   72.96    0.00    2.35   0.377   0.262   0.216   0.140   0.100   0.154
 1997 213    38  10.80  27.60  22.60  2.616  0.801  2.065  2.614  0.801  1.757  0.000  0.057  150.14   88.57   11.45   74.72    0.00    2.41   0.525   0.363   0.305   0.200   0.143   0.220
 1997 214    39  21.20  31.00  22.60  5.316  1.794  4.093  3.079  1.794  1.192  0.000  0.093  155.46   91.65   13.24   75.91    0.00    2.50   1.018   0.116   0.035   0.012   0.005   0.005
 1997 215    40  18.60  33.40  22.30  4.751  1.702  3.574  2.843  1.702  1.069  0.000  0.071  160.21   94.49   14.94   76.98    0.00    2.57   0.901   0.112   0.034   0.012   0.005   0.005
 1997 216    41  11.80  29.50  24.20  2.919  1.128  2.122  2.143  1.128  0.960  0.000  0.055  163.13   96.64   16.07   77.94    0.00    2.62   0.795   0.109   0.033   0.012   0.005   0.005
 1997 217    42  13.50  30.00  22.50  3.305  1.267  2.318  3.302  1.267  1.993  0.000  0.042  166.43   99.94   17.34   79.93    0.00    2.67   0.535   0.423   0.361   0.243   0.177   0.254
 1997 218    43   7.50  28.00  21.00  1.794  0.729  1.211  1.793  0.729  0.971  0.000  0.092  168.23  101.73   18.07   80.90    0.00    2.76   0.284   0.201   0.171   0.113   0.082   0.120
 1997 219    44  12.60  30.00  22.50  3.102  1.319  2.027  3.099  1.319  1.709  0.000  0.071  171.33  104.83   19.39   82.61    0.00    2.83   0.502   0.351   0.300   0.198   0.143   0.216
 1997 220    45  21.90  30.40  21.10  5.344  2.403  3.343  5.338  2.403  2.881  0.000  0.054  176.67  110.17   21.79   85.50    0.00    2.88   0.821   0.589   0.510   0.340   0.247   0.374
 1997 221    46  14.10  31.40  23.00  3.511  1.805  2.111  2.886  1.805  1.039  0.000  0.042  180.18  113.05   23.59   86.53    0.00    2.93   0.876   0.108   0.033   0.012   0.005   0.005
 1997 222    47  21.00  30.00  23.00  5.135  2.781  2.985  3.744  2.781  0.931  0.000  0.032  185.32  116.80   26.37   87.47    0.00    2.96   0.772   0.104   0.033   0.012   0.005   0.005
 1997 223    48  21.40  30.80  22.50  5.242  2.966  2.954  3.808  2.966  0.818  0.000  0.024  190.56  120.61   29.34   88.28    0.00    2.98   0.665   0.099   0.032   0.012   0.005   0.005
 1997 224    49  16.70  30.00  22.40  4.041  2.386  2.202  3.116  2.386  0.711  0.000  0.019  194.60  123.72   31.73   88.99    0.00    3.00   0.565   0.093   0.031   0.011   0.005   0.005
 1997 225    50  17.50  30.50  23.60  4.283  2.634  2.253  3.272  2.634  0.623  0.000  0.015  198.88  126.99   34.36   89.62    0.00    3.02   0.482   0.089   0.030   0.011   0.005   0.005
 1997 226    51  16.90  31.50  23.50  4.170  2.666  2.113  3.242  2.666  0.565  0.000  0.011  203.05  130.24   37.03   90.18    0.00    3.03   0.431   0.084   0.029   0.011   0.005   0.005
 1997 227    52   8.70  27.40  23.40  2.050  1.320  0.999  2.047  1.320  0.718  0.000  0.009  205.10  132.28   38.35   90.90    0.00    3.04   0.591   0.078   0.028   0.011   0.005   0.005
 1997 228    53  18.30  34.00  21.20  4.574  3.108  2.164  4.063  3.108  0.862  0.000  0.093  209.68  136.35   41.46   91.76    0.00    3.13   0.738   0.075   0.027   0.011   0.005   0.005
 1997 229    54  13.20  30.50  23.50  3.224  2.258  1.468  3.079  2.258  0.749  0.000  0.071  212.90  139.43   43.71   92.51    0.00    3.20   0.633   0.070   0.026   0.011   0.005   0.005
 1997 230    55  17.50  34.00  22.50  4.395  3.162  1.927  4.265  3.162  1.049  0.000  0.054  217.30  143.69   46.88   93.56    0.00    3.25   0.888   0.104   0.034   0.012   0.005   0.005
 1997 231    56  20.40  30.50  21.50  4.931  3.105  2.077  4.923  3.105  1.721  0.000  0.097  222.23  148.61   49.98   95.28    0.00    3.35   0.504   0.361   0.306   0.198   0.140   0.213
 1997 232    57  19.40  29.50  22.50  4.661  2.999  1.891  4.654  2.999  1.581  0.000  0.074  226.89  153.27   52.98   96.86    0.00    3.43   0.448   0.328   0.282   0.187   0.133   0.204
 1997 233    58  26.20  33.50  23.80  6.614  4.347  2.580  6.604  4.347  2.201  0.000  0.057  233.50  159.87   57.33   99.06    0.00    3.48   0.645   0.471   0.384   0.252   0.178   0.271
 1997 234    59  15.50  33.50  23.50  3.909  2.622  1.465  3.903  2.622  1.182  0.000  0.099  237.41  163.77   59.95  100.25    0.00    3.58   0.351   0.248   0.205   0.135   0.096   0.147
 1997 235    60   6.80  32.50  22.50  1.683  1.149  0.607  1.680  1.149  0.456  0.000  0.075  239.09  165.45   61.10  100.70    0.00    3.66   0.132   0.095   0.080   0.053   0.038   0.059
 1997 236    61  15.90  31.50  22.00  3.877  2.671  1.372  3.871  2.671  1.142  0.000  0.057  242.97  169.33   63.77  101.84    0.00    3.71   0.971   0.115   0.034   0.012   0.005   0.005
 1997 237    62  21.80  32.40  23.00  5.396  3.775  1.845  5.387  3.775  1.569  0.000  0.044  248.37  174.71   67.54  103.41    0.00    3.76   0.463   0.330   0.270   0.179   0.129   0.198
 1997 238    63  15.70  31.50  22.20  3.833  2.724  1.263  3.827  2.724  1.003  0.000  0.099  252.20  178.54   70.27  104.42    0.00    3.86   0.303   0.207   0.173   0.114   0.082   0.125
 1997 239    64  17.60  32.50  23.00  4.361  3.139  1.391  4.354  3.139  1.139  0.000  0.076  256.56  182.89   73.41  105.55    0.00    3.93   0.354   0.233   0.193   0.127   0.092   0.140
 1997 240    65   9.80  32.50  20.50  2.387  1.740  0.736  2.383  1.740  0.549  0.000  0.094  258.95  185.28   75.15  106.10    0.00    4.03   0.167   0.112   0.094   0.062   0.045   0.068
 1997 241    66  22.90  31.20  22.50  5.574  4.093  1.687  5.564  4.093  1.391  0.000  0.080  264.52  190.84   79.24  107.49    0.00    4.11   0.429   0.291   0.237   0.155   0.111   0.168
 1997 242    67  21.00  30.00  23.40  5.079  3.773  1.488  5.070  3.773  1.196  0.000  0.101  269.60  195.91   83.01  108.69    0.00    4.21   0.358   0.248   0.207   0.136   0.098   0.149
 1997 243    68  22.00  31.00  22.70  5.345  4.095  1.517  5.336  4.095  1.164  0.000  0.077  274.95  201.25   87.11  109.85    0.00    4.28   0.993   0.114   0.034   0.012   0.005   0.005
 1997 244    69  18.50  33.00  23.00  4.595  3.515  1.266  4.587  3.515  1.013  0.000  0.058  279.54  205.83   90.62  110.87    0.00    4.34   0.852   0.107   0.032   0.011   0.005   0.005
 1997 245    70  18.00  30.50  23.50  4.367  3.430  1.170  4.359  3.430  0.884  0.000  0.044  283.91  210.19   94.05  111.75    0.00    4.39   0.731   0.100   0.031   0.011   0.005   0.005
 1997 246    71  11.20  28.60  23.00  2.651  2.044  0.692  2.646  2.044  0.568  0.000  0.034  286.56  212.84   96.10  112.32    0.00    4.42   0.463   0.068   0.022   0.008   0.004   0.004
[...]
 1997 220    17  21.90  30.40  21.10  5.488  0.203  5.373  4.924  0.203  4.668  0.000  0.054   66.53   32.28    0.60   30.61    0.00    1.07   1.309   0.965   0.835   0.554   0.398   0.606
 1997 221    18  14.10  31.40  23.00  3.600  0.147  3.516  1.197  0.147  1.009  0.000  0.041   70.13   33.48    0.75   31.62    0.00    1.11   0.842   0.110   0.034   0.012   0.005   0.005
 1997 222    19  21.00  30.00  23.00  5.263  0.246  5.123  1.206  0.246  0.929  0.000  0.032   75.39   34.69    0.99   32.55    0.00    1.15   0.763   0.109   0.034   0.012   0.005   0.005
 1997 223    20  21.40  30.80  22.50  5.372  0.280  5.212  1.158  0.280  0.854  0.000  0.024   80.76   35.84    1.27   33.40    0.00    1.17   0.690   0.108   0.034   0.012   0.005   0.005
 1997 224    21  16.70  30.00  22.40  4.141  0.235  4.006  1.039  0.235  0.786  0.000  0.019   84.90   36.88    1.51   34.19    0.00    1.19   0.622   0.107   0.034   0.012   0.005   0.005
 1997 225    22  17.50  30.50  23.60  4.388  0.268  4.234  1.006  0.268  0.724  0.000  0.014   89.29   37.89    1.78   34.91    0.00    1.20   0.562   0.106   0.034   0.012   0.005   0.005
 1997 226    23  16.90  31.50  23.50  4.268  0.299  4.095  0.978  0.299  0.668  0.000  0.011   93.56   38.87    2.08   35.58    0.00    1.21   0.507   0.105   0.033   0.012   0.005   0.005
 1997 227    24   8.70  27.40  23.40  2.096  0.168  1.998  0.997  0.168  0.821  0.000  0.008   95.65   39.86    2.24   36.40    0.00    1.22   0.661   0.103   0.033   0.012   0.005   0.005
 1997 228    25  18.30  34.00  21.20  4.721  0.422  4.474  1.473  0.422  0.961  0.000  0.089  100.38   41.34    2.67   37.36    0.00    1.31   0.803   0.102   0.033   0.012   0.005   0.005
 1997 229    26  13.20  30.50  23.50  3.323  0.337  3.125  1.285  0.337  0.880  0.000  0.068  103.70   42.62    3.00   38.24    0.00    1.38   0.723   0.101   0.033   0.012   0.005   0.005
 1997 230    27  17.50  34.00  22.50  4.522  0.517  4.216  4.222  0.517  3.652  0.000  0.052  108.22   46.84    3.52   41.89    0.00    1.43   0.964   0.763   0.668   0.452   0.333   0.473
 1997 231    28  20.40  30.50  21.50  5.137  0.664  4.740  4.829  0.664  4.072  0.000  0.092  113.36   51.67    4.18   45.96    0.00    1.52   1.184   0.844   0.717   0.475   0.348   0.505
 1997 232    29  19.40  29.50  22.50  4.830  0.697  4.409  4.572  0.697  3.804  0.000  0.071  118.19   56.24    4.88   49.77    0.00    1.60   1.048   0.799   0.681   0.451   0.327   0.497
 1997 233    30  26.20  33.50  23.80  6.831  1.101  6.161  6.514  1.101  5.359  0.000  0.054  125.02   62.76    5.98   55.13    0.00    1.65   1.533   1.158   0.943   0.616   0.443   0.666
 1997 234    31  15.50  33.50  23.50  4.063  0.717  3.622  3.900  0.717  3.090  0.000  0.093  129.08   66.66    6.70   58.22    0.00    1.74   0.905   0.652   0.540   0.353   0.254   0.387
 1997 235    32   6.80  32.50  22.50  1.742  0.344  1.529  1.687  0.344  1.272  0.000  0.071  130.82   68.35    7.04   59.49    0.00    1.81   0.355   0.269   0.226   0.150   0.108   0.165
 1997 236    33  15.90  31.50  22.00  4.008  0.858  3.469  2.007  0.858  1.094  0.000  0.054  134.83   70.35    7.90   60.58    0.00    1.87   0.921   0.116   0.035   0.012   0.005   0.005
 1997 237    34  21.80  32.40  23.00  5.562  1.313  4.726  5.464  1.313  4.110  0.000  0.042  140.39   75.82    9.21   64.69    0.00    1.91   1.188   0.875   0.719   0.472   0.339   0.518
 1997 238    35  15.70  31.50  22.20  3.977  1.023  3.317  3.937  1.023  2.822  0.000  0.092  144.37   79.75   10.24   67.51    0.00    2.00   0.839   0.583   0.492   0.322   0.231   0.354
 1997 239    36  17.60  32.50  23.00  4.504  1.271  3.670  4.495  1.271  3.154  0.000  0.070  148.88   84.25   11.51   70.67    0.00    2.07   0.964   0.647   0.542   0.356   0.255   0.391
 1997 240    37   9.80  32.50  20.50  2.472  0.745  1.964  2.471  0.745  1.632  0.000  0.094  151.35   86.72   12.25   72.30    0.00    2.17   0.491   0.334   0.282   0.186   0.134   0.205
 1997 241    38  22.90  31.20  22.50  5.752  1.825  4.466  5.748  1.825  3.851  0.000  0.072  157.10   92.47   14.08   76.15    0.00    2.24   1.176   0.808   0.660   0.431   0.308   0.469
 1997 242    39  21.00  30.00  23.40  5.248  1.740  3.989  5.244  1.740  3.410  0.000  0.094  162.35   97.71   15.82   79.56    0.00    2.33   1.012   0.710   0.592   0.389   0.281   0.426
 1997 243    40  22.00  31.00  22.70  5.496  2.070  4.045  3.256  2.070  1.114  0.000  0.072  167.84  100.97   17.89   80.67    0.00    2.40   0.943   0.114   0.034   0.012   0.005   0.005
 1997 244    41  18.50  33.00  23.00  4.708  1.884  3.364  2.934  1.884  0.995  0.000  0.055  172.55  103.90   19.77   81.67    0.00    2.46   0.829   0.110   0.033   0.012   0.005   0.005
 1997 245    42  18.00  30.50  23.50  4.460  1.918  3.060  2.850  1.918  0.889  0.000  0.042  177.01  106.75   21.69   82.56    0.00    2.50   0.728   0.106   0.033   0.012   0.005   0.005
 1997 246    43  11.20  28.60  23.00  2.700  1.241  1.772  2.089  1.241  0.816  0.000  0.033  179.71  108.84   22.93   83.37    0.00    2.53   0.659   0.103   0.032   0.011   0.005   0.005
 1997 247    44  11.60  30.00  23.50  2.844  1.382  1.786  2.442  1.382  0.990  0.000  0.070  182.56  111.28   24.31   84.36    0.00    2.60   0.835   0.101   0.032   0.011   0.005   0.005
 1997 248    45  18.80  32.50  22.50  4.729  2.225  2.847  4.725  2.225  2.418  0.000  0.081  187.28  116.01   26.54   86.78    0.00    2.69   0.745   0.504   0.406   0.270   0.195   0.299
 1997 249    46  14.00  31.50  22.00  3.478  1.699  2.022  3.474  1.699  1.688  0.000  0.087  190.76  119.48   28.24   88.47    0.00    2.77   0.503   0.357   0.292   0.191   0.136   0.208
 1997 250    47  17.10  30.50  22.00  4.186  2.116  2.352  4.181  2.116  1.998  0.000  0.067  194.95  123.66   30.35   90.47    0.00    2.84   0.578   0.417   0.350   0.231   0.166   0.256
 1997 251    48  23.30  31.50  23.00  5.789  3.022  3.145  5.782  3.022  2.709  0.000  0.051  200.74  129.44   33.37   93.18    0.00    2.89   0.790   0.575   0.484   0.311   0.219   0.329
 1997 252    49  12.20  31.50  23.50  3.047  1.643  1.596  3.043  1.643  1.306  0.000  0.094  203.78  132.49   35.02   94.48    0.00    2.99   0.385   0.280   0.234   0.151   0.105   0.151
 1997 253    50  15.70  30.50  22.50  3.850  2.136  1.948  3.845  2.136  1.627  0.000  0.081  207.63  136.33   37.15   96.11    0.00    3.07   0.495   0.330   0.280   0.189   0.138   0.195
 1997 254    51  15.20  29.00  22.50  3.661  2.091  1.785  3.656  2.091  1.471  0.000  0.095  211.29  139.99   39.24   97.58    0.00    3.16   0.437   0.299   0.256   0.171   0.124   0.185
 1997 255    52  20.80  31.50  22.50  5.128  3.010  2.410  5.121  3.010  2.039  0.000  0.072  216.42  145.11   42.25   99.62    0.00    3.23   0.592   0.413   0.359   0.239   0.172   0.265
 1997 256    53  21.50  33.50  24.00  5.456  3.289  2.465  5.448  3.289  2.103  0.000  0.056  221.88  150.56   45.54  101.72    0.00    3.29   0.608   0.435   0.373   0.250   0.177   0.261
 1997 257    54  16.50  29.50  21.50  3.949  2.446  1.710  3.943  2.446  1.400  0.000  0.097  225.83  154.50   47.99  103.12    0.00    3.39   0.409   0.290   0.247   0.164   0.117   0.173
 1997 258    55  20.80  32.50  23.00  5.182  3.284  2.159  5.174  3.284  1.816  0.000  0.074  231.01  159.67   51.27  104.94    0.00    3.46   0.550   0.372   0.313   0.208   0.149   0.223
 1997 259    56  19.80  31.00  21.00  4.789  3.105  1.914  4.781  3.105  1.577  0.000  0.099  235.80  164.45   54.38  106.52    0.00    3.56   0.474   0.321   0.273   0.180   0.130   0.200
 1997 260    57  21.00  31.50  22.00  5.130  3.395  1.974  5.122  3.395  1.651  0.000  0.075  240.93  169.58   57.77  108.17    0.00    3.63   0.498   0.351   0.283   0.185   0.133   0.202
 1997 261    58   9.10  26.50  22.00  2.106  1.421  0.779  2.103  1.421  0.584  0.000  0.098  243.03  171.68   59.20  108.75    0.00    3.73   0.177   0.127   0.101   0.065   0.046   0.068
 1997 262    59  16.30  30.00  22.50  3.934  2.687  1.419  3.928  2.687  1.151  0.000  0.089  246.97  175.61   61.88  109.90    0.00    3.82   0.342   0.240   0.202   0.132   0.094   0.141
 1997 263    60  14.60  32.00  23.50  3.617  2.512  1.258  3.611  2.512  1.031  0.000  0.068  250.59  179.22   64.39  110.94    0.00    3.89   0.301   0.212   0.181   0.119   0.086   0.132
 1997 264    61  24.50  33.50  24.00  6.179  4.357  2.075  6.169  4.357  1.761  0.000  0.052  256.76  185.39   68.75  112.70    0.00    3.94   0.501   0.359   0.311   0.208   0.150   0.232
 1997 265    62  19.70  33.50  24.50  4.979  3.565  1.609  4.971  3.565  1.366  0.000  0.040  261.74  190.36   72.32  114.06    0.00    3.98   0.399   0.289   0.239   0.156   0.112   0.171
 1997 266    63   7.60  28.00  21.00  1.770  1.285  0.551  1.766  1.285  0.411  0.000  0.070  263.51  192.12   73.60  114.47    0.00    4.05   0.122   0.086   0.072   0.047   0.033   0.051
 1997 267    64  19.50  32.00  22.40  4.785  3.496  1.467  4.776  3.496  1.197  0.000  0.083  268.30  196.90   77.10  115.67    0.00    4.13   0.371   0.246   0.205   0.134   0.096   0.146
 1997 268    65   9.30  28.50  21.50  2.184  1.614  0.648  2.180  1.614  0.482  0.000  0.083  270.48  199.08   78.71  116.15    0.00    4.22   0.146   0.098   0.083   0.055   0.040   0.061
 1997 269    66  16.00  33.50  21.70  3.965  2.950  1.157  3.958  2.950  0.934  0.000  0.075  274.45  203.04   81.66  117.09    0.00    4.29   0.280   0.188   0.162   0.108   0.078   0.120
 1997 270    67  24.70  34.50  24.50  6.299  4.730  1.789  6.289  4.730  1.502  0.000  0.057  280.75  209.33   86.39  118.59    0.00    4.35   0.440   0.308   0.262   0.175   0.129   0.189
 1997 271    68  24.90  32.50  20.00  6.032  4.575  1.660  6.021  4.575  1.342  0.000  0.104  286.78  215.35   90.97  119.93    0.00    4.45   0.391   0.276   0.235   0.156   0.115   0.170
 1997 272    69  21.90  34.00  24.00  5.534  4.232  1.485  5.525  4.232  1.214  0.000  0.079  292.31  220.87   95.20  121.15    0.00    4.53   0.363   0.244   0.209   0.140   0.102   0.155
 1997 273    70  18.80  33.00  23.00  4.671  3.603  1.218  4.663  3.603  0.953  0.000  0.107  296.98  225.54   98.80  122.10    0.00    4.64   0.288   0.189   0.162   0.110   0.081   0.123
 1997 274    71  20.20  33.50  25.00  5.111  3.972  1.300  5.102  3.972  1.049  0.000  0.081  302.09  230.64  102.77  123.15    0.00    4.72   0.308   0.206   0.179   0.124   0.091   0.141
 1997 275    72  24.50  34.00  25.00  6.226  4.875  1.543  6.216  4.875  1.280  0.000  0.061  308.32  236.86  107.65  124.43    0.00    4.78   0.385   0.269   0.216   0.144   0.105   0.161
 1997 276    73  15.10  28.00  20.00  3.478  2.741  0.840  3.471  2.741  0.622  0.000  0.108  311.80  240.33  110.39  125.05    0.00    4.89   0.186   0.131   0.108   0.070   0.050   0.077
 1997 277    74  18.10  32.00  20.00  4.352  3.445  1.036  4.344  3.445  0.818  0.000  0.081  316.15  244.67  113.84  125.87    0.00    4.97   0.240   0.170   0.142   0.094   0.068   0.105
 1997 278    75   8.80  31.50  20.00  2.104  1.673  0.492  2.100  1.673  0.366  0.000  0.061  318.26  246.77  115.51  126.23    0.00    5.03   0.107   0.077   0.064   0.043   0.031   0.045
 1997 279    76  22.20  33.00  21.30  5.447  4.335  1.271  5.437  4.335  0.991  0.000  0.110  323.70  252.21  119.84  127.22    0.00    5.14   0.294   0.210   0.174   0.116   0.083   0.115
 1997 280    77  21.20  30.70  20.60  5.049  4.036  1.158  5.039  4.036  0.909  0.000  0.094  328.75  257.25  123.88  128.13    0.00    5.23   0.267   0.188   0.159   0.106   0.076   0.113
 1997 281    78   8.70  32.00  23.50  2.143  1.719  0.485  2.139  1.719  0.355  0.000  0.065  330.89  259.39  125.60  128.49    0.00    5.30   0.104   0.072   0.062   0.041   0.030   0.045
 1997 282    79  17.70  32.00  25.40  4.418  3.546  0.999  4.410  3.546  0.749  0.000  0.115  335.31  263.80  129.14  129.24    0.00    5.41   0.224   0.150   0.130   0.086   0.063   0.096
 1997 283    80  18.60  33.00  25.20  4.682  3.771  1.044  4.674  3.771  0.816  0.000  0.086  339.99  268.47  132.92  130.05    0.00    5.50   0.238   0.161   0.142   0.096   0.070   0.109
 1997 284    81  19.80  32.80  25.20  4.972  4.018  1.094  4.964  4.018  0.881  0.000  0.065  344.97  273.43  136.93  130.93    0.00    5.56   0.250   0.171   0.154   0.106   0.078   0.122
 1997 285    82  17.60  33.70  24.00  4.423  3.585  0.961  4.415  3.585  0.782  0.000  0.049  349.39  277.85  140.52  131.72    0.00    5.61   0.665   0.075   0.024   0.009   0.004   0.004
 1997 286    83  20.40  33.80  23.40  5.109  4.190  1.100  5.100  4.190  0.873  0.000  0.036  354.50  282.95  144.71  132.59    0.00    5.65   0.734   0.088   0.029   0.011   0.005   0.005
 1997 287    84  12.50  32.00  24.20  3.089  2.515  0.658  3.083  2.515  0.540  0.000  0.027  357.59  286.03  147.22  133.13    0.00    5.68   0.447   0.058   0.020   0.008   0.004   0.004
 1997 288    85  21.60  31.40  21.50  5.203  4.239  1.107  5.193  4.239  0.902  0.000  0.053  362.79  291.22  151.46  134.03    0.00    5.73   0.772   0.087   0.025   0.009   0.004   0.004
 1997 289    86  24.30  33.20  22.20  6.004  4.899  1.270  5.993  4.899  0.985  0.000  0.108  368.79  297.22  156.36  135.02    0.00    5.84   0.313   0.213   0.148   0.103   0.078   0.130
 1997 290    87  12.10  33.00  23.40  3.007  2.458  0.632  3.001  2.458  0.463  0.000  0.080  371.80  300.22  158.82  135.48    0.00    5.92   0.399   0.045   0.011   0.004   0.002   0.002
 1997 291    88  12.70  35.40  23.20  3.288  2.687  0.692  3.282  2.687  0.536  0.000  0.060  375.09  303.50  161.51  136.02    0.00    5.98   0.168   0.120   0.086   0.054   0.040   0.069
 1997 292    89  12.80  30.40  21.40  3.053  2.494  0.644  3.047  2.494  0.463  0.000  0.091  378.14  306.55  164.00  136.48    0.00    6.07   0.143   0.101   0.080   0.048   0.033   0.057
 1997 293    90  12.50  33.00  23.00  3.098  2.530  0.656  3.092  2.530  0.470  0.000  0.093  381.24  309.64  166.53  136.95    0.00    6.16   0.143   0.099   0.082   0.052   0.034   0.059
 1997 294    91  12.00  33.40  23.00  2.986  2.437  0.634  2.981  2.437  0.469  0.000  0.075  384.23  312.62  168.97  137.42    0.00    6.24   0.401   0.046   0.014   0.004   0.002   0.002
 1997 295    92  20.60  33.00  23.90  5.136  4.188  1.095  5.126  4.188  0.883  0.000  0.056  389.36  317.75  173.16  138.30    0.00    6.29   0.751   0.089   0.027   0.009   0.004   0.004
 1997 296    93  24.40  33.00  21.80  5.993  4.978  1.276  5.982  4.978  0.963  0.000  0.041  395.35  323.73  178.13  139.26    0.00    6.33   0.808   0.103   0.031   0.011   0.004   0.005
 1997 297    94  20.60  34.00  23.60  5.174  4.223  1.100  5.164  4.223  0.911  0.000  0.030  400.53  328.89  182.36  140.17    0.00    6.36   0.783   0.087   0.025   0.009   0.004   0.004
 1997 298    95  19.80  34.00  22.00  4.924  4.020  1.046  4.915  4.020  0.769  0.000  0.126  405.45  333.81  186.38  140.94    0.00    6.49   0.251   0.163   0.118   0.081   0.054   0.101
 1997 299    96  23.00  35.00  22.00  5.777  4.717  1.227  5.767  4.717  0.957  0.000  0.093  411.23  339.58  191.09  141.90    0.00    6.58   0.323   0.204   0.143   0.097   0.066   0.124
 1997 300    97  19.70  32.50  22.20  4.831  3.945  1.026  4.822  3.945  0.742  0.000  0.135  416.06  344.40  195.04  142.64    0.00    6.72   0.246   0.163   0.110   0.074   0.051   0.097
 1997 301    98  22.50  33.00  24.00  5.613  4.584  1.193  5.603  4.584  0.920  0.000  0.098  421.67  350.00  199.62  143.56    0.00    6.82   0.312   0.202   0.133   0.090   0.063   0.121
 1997 302    99  22.10  33.50  23.70  5.531  4.517  1.177  5.521  4.517  0.867  0.000  0.137  427.20  355.52  204.14  144.43    0.00    6.95   0.294   0.190   0.121   0.084   0.061   0.117
 1997 303   100  21.50  33.50  22.50  5.335  4.357  1.136  5.325  4.357  0.869  0.000  0.100  432.54  360.85  208.50  145.30    0.00    7.05   0.756   0.081   0.018   0.007   0.003   0.004
 1997 304   101  15.50  32.70  22.50  3.813  3.113  0.813  3.806  3.113  0.620  0.000  0.073  436.35  364.65  211.61  145.92    0.00    7.13   0.535   0.061   0.014   0.005   0.003   0.003
 1997 305   102  22.60  31.70  23.00  5.520  4.587  1.182  5.509  4.587  0.869  0.000  0.053  441.87  370.16  216.20  146.79    0.00    7.18   0.743   0.089   0.020   0.008   0.004   0.005
 1997 306   103  15.40  34.00  24.00  3.877  3.162  0.832  3.870  3.162  0.669  0.000  0.039  445.75  374.03  219.36  147.46    0.00    7.22   0.563   0.074   0.017   0.007   0.004   0.004
 1997 307   104  23.80  31.70  24.20  5.857  5.194  1.262  5.847  5.194  0.625  0.000  0.028  451.61  379.88  224.55  148.08    0.00    7.25   0.516   0.075   0.018   0.008   0.004   0.005
 1997 308   105  23.20  34.50  24.00  5.866  5.308  1.267  5.856  5.308  0.528  0.000  0.021  457.47  385.74  229.86  148.61    0.00    7.27   0.433   0.064   0.015   0.007   0.004   0.005
 1997 309   106  20.00  34.00  24.50  5.048  4.558  1.092  5.039  4.558  0.465  0.000  0.015  462.52  390.77  234.42  149.07    0.00    7.28   0.386   0.051   0.013   0.007   0.004   0.005
 1997 310   107  23.20  35.50  23.00  6.018  5.514  1.310  2.242  1.820  0.411  0.000  0.011  468.54  393.02  236.24  149.48    0.00    7.29   0.346   0.036   0.012   0.007   0.004   0.005
 1997 311   108  22.90  35.00  23.00  5.778  5.291  1.264  1.873  1.489  0.375  0.000  0.008  474.32  394.89  237.73  149.86    0.00    7.30   0.313   0.035   0.012   0.007   0.004   0.005
 1997 312   109  19.60  35.00  25.50  5.029  4.602  1.104  1.623  1.256  0.360  0.000  0.006  479.35  396.51  238.99  150.22    0.00    7.31   0.300   0.034   0.011   0.007   0.004   0.005
 1997 313   110  21.20  34.50  25.00  5.394  4.934  1.187  1.467  1.068  0.347  0.000  0.052  484.74  397.98  240.05  150.57    0.00    7.36   0.288   0.033   0.011   0.007   0.004   0.005
 1997 314   111  22.60  35.00  23.70  5.729  5.239  1.263  1.286  0.929  0.320  0.000  0.037  490.47  399.27  240.98  150.89    0.00    7.40   0.262   0.032   0.011   0.007   0.004   0.005
 1997 315   112  22.40  34.80  22.50  5.620  5.123  1.263  1.144  0.822  0.295  0.000  0.027  496.09  400.41  241.81  151.18    0.00    7.42   0.238   0.032   0.011   0.006   0.004   0.005
 1997 316   113  21.40  35.50  23.00  5.548  5.040  1.273  1.028  0.736  0.272  0.000  0.020  501.64  401.44  242.54  151.45    0.00    7.44   0.216   0.031   0.010   0.006   0.004   0.004
 1997 317   114  21.50  35.20  21.00  5.408  4.894  1.266  0.934  0.666  0.252  0.000  0.016  507.04  402.37  243.21  151.71    0.00    7.46   0.197   0.031   0.010   0.006   0.004   0.004
 1997 318   115  22.40  35.00  21.00  5.570  5.022  1.332  0.854  0.608  0.233  0.000  0.013  512.62  403.23  243.82  151.94    0.00    7.47   0.179   0.030   0.010   0.006   0.004   0.004
 1997 319   116  22.10  35.00  21.70  5.521  4.956  1.350  0.785  0.558  0.216  0.000  0.011  518.14  404.01  244.37  152.15    0.00    7.48   0.163   0.030   0.010   0.006   0.004   0.004
 1997 320   117  19.50  35.80  20.00  5.030  4.496  1.257  0.726  0.515  0.201  0.000  0.009  523.17  404.74  244.89  152.36    0.00    7.49   0.148   0.029   0.010   0.006   0.004   0.004
 1997 321   118  19.30  35.50  20.30  4.906  4.365  1.253  0.674  0.478  0.187  0.000  0.008  528.07  405.41  245.37  152.54    0.00    7.50   0.134   0.029   0.010   0.006   0.004   0.004
 1997 322   119  19.90  36.30  21.50  5.323  4.714  1.390  0.628  0.446  0.174  0.000  0.008  533.39  406.04  245.81  152.72    0.00    7.51   0.122   0.029   0.010   0.006   0.003   0.004
 1997 323   120  19.00  33.50  20.50  4.629  4.078  1.236  0.587  0.417  0.163  0.000  0.007  538.02  406.63  246.23  152.88    0.00    7.51   0.111   0.028   0.010   0.006   0.003   0.004
 1997 324   121  22.20  35.50  21.00  5.664  4.965  1.545  0.550  0.391  0.152  0.000  0.007  543.69  407.18  246.62  153.03    0.00    7.52   0.101   0.028   0.010   0.006   0.003   0.004
