*SOIL-PLANT-ATMOSPHERE MODULE OUTPUT FILE

*DSSAT Cropping System Model Ver. 4.5.1.023 -Stub         OCT 13, 2014; 10:48:17
                                                                                
*RUN   1        : 97 DATE1 CHINESE          CRGRO045 GHNY9701    1              
 MODEL          : CRGRO045 - Peanut                                             
 EXPERIMENT     : GHNY9701 PN able [sltx] with oversized content [1 SALO], only 
 DATA PATH      :                                                               
 TREATMENT  1   : 97 DATE1 CHINESE          CRGRO045                            
  
!                                                                                                                                                Soil evaporation (mm/d) by soil depth (cm):
!                                                                                                                                                0-5    5-15   15-30   30-45   45-60   60-90
@YEAR DOY   DAS   SRAA  TMAXA  TMINA   EOAA   EOPA   EOSA   ETAA   EPAA   ESAA   EFAA   EMAA    EOAC    ETAC    EPAC    ESAC    EFAC    EMAC    ES1D    ES2D    ES3D    ES4D    ES5D    ES6D    
 1997 149     1  23.50  32.50  23.00  5.953  0.000  5.953  1.466  0.000  1.421  0.000  0.044    5.95    1.47    0.00    1.42    0.00    0.04   0.044   0.099   0.149   0.323   0.287   0.521
 1997 150     2  24.10  34.00  24.20  6.250  0.000  6.250  1.442  0.000  1.408  0.000  0.034   12.20    2.91    0.00    2.83    0.00    0.08   0.043   0.098   0.147   0.319   0.284   0.518
 1997 151     3  22.50  33.00  24.50  5.787  0.000  5.787  1.419  0.000  1.393  0.000  0.026   17.99    4.33    0.00    4.22    0.00    0.10   0.043   0.097   0.145   0.316   0.280   0.512
 1997 152     4  22.80  33.00  23.00  5.803  0.000  5.803  0.454  0.000  0.434  0.000  0.020   23.79    4.78    0.00    4.66    0.00    0.12   0.349   0.049   0.015   0.011   0.005   0.004
 1997 153     5  19.00  33.60  23.40  4.872  0.000  4.872  0.417  0.000  0.402  0.000  0.015   28.67    5.20    0.00    5.06    0.00    0.14   0.317   0.049   0.015   0.011   0.005   0.004
 1997 154     6  22.90  33.50  22.30  5.814  0.000  5.814  0.384  0.000  0.372  0.000  0.012   34.48    5.58    0.00    5.43    0.00    0.15   0.289   0.048   0.015   0.011   0.005   0.004
 1997 155     7  13.20  31.50  23.00  3.295  0.000  3.295  0.657  0.000  0.648  0.000  0.009   37.77    6.24    0.00    6.08    0.00    0.16   0.564   0.048   0.015   0.011   0.005   0.004
 1997 156     8  13.10  27.00  21.50  3.158  0.000  3.158  0.987  0.000  0.898  0.000  0.089   40.93    7.23    0.00    6.98    0.00    0.25   0.815   0.048   0.014   0.011   0.005   0.004
 1997 157     9  20.80  32.00  21.30  5.267  0.046  5.240  0.999  0.046  0.884  0.000  0.068   46.20    8.22    0.05    7.86    0.00    0.32   0.801   0.048   0.014   0.011   0.005   0.004
 1997 158    10  15.10  31.00  22.80  3.830  0.047  3.804  1.010  0.047  0.869  0.000  0.093   50.03    9.23    0.09    8.73    0.00    0.41   0.786   0.047   0.014   0.011   0.005   0.004
 1997 159    11  16.20  33.60  23.90  4.240  0.068  4.201  0.935  0.068  0.795  0.000  0.072   54.27   10.17    0.16    9.52    0.00    0.48   0.713   0.047   0.014   0.011   0.005   0.004
 1997 160    12  23.00  34.00  23.00  5.988  0.118  5.922  0.900  0.118  0.727  0.000  0.055   60.26   11.07    0.28   10.25    0.00    0.54   0.645   0.047   0.014   0.011   0.005   0.004
 1997 161    13  16.60  32.40  23.50  4.253  0.100  4.197  0.805  0.100  0.663  0.000  0.042   64.51   11.87    0.38   10.91    0.00    0.58   0.581   0.046   0.014   0.011   0.005   0.004
 1997 162    14   8.50  27.20  24.80  2.074  0.061  2.040  0.972  0.061  0.879  0.000  0.032   66.59   12.85    0.44   11.79    0.00    0.61   0.797   0.046   0.014   0.011   0.005   0.004
 1997 163    15  20.80  30.50  21.00  5.221  0.187  5.115  1.346  0.177  1.078  0.000  0.091   71.81   14.19    0.62   12.87    0.00    0.70   0.997   0.047   0.014   0.011   0.005   0.004
 1997 164    16  10.70  31.00  23.50  2.737  0.104  2.678  2.457  0.104  2.284  0.000  0.070   74.54   16.65    0.72   15.15    0.00    0.77   0.801   0.457   0.277   0.276   0.195   0.277
 1997 165    17  15.80  31.00  21.60  4.047  0.176  3.946  3.644  0.176  3.375  0.000  0.093   78.59   20.29    0.90   18.53    0.00    0.87   1.103   0.819   0.506   0.349   0.246   0.351
 1997 166    18  14.40  30.00  22.50  3.647  0.180  3.544  3.295  0.180  3.031  0.000  0.083   82.24   23.59    1.08   21.56    0.00    0.95   0.932   0.698   0.514   0.326   0.231   0.330
 1997 167    19  16.90  30.60  22.90  4.298  0.238  4.161  3.895  0.238  3.593  0.000  0.064   86.54   27.48    1.32   25.15    0.00    1.01   1.123   0.857   0.619   0.374   0.255   0.366
 1997 168    20  21.00  30.20  20.60  5.281  0.321  5.097  4.799  0.321  4.386  0.000  0.093   91.82   32.28    1.64   29.54    0.00    1.11   1.360   1.019   0.762   0.472   0.315   0.457
 1997 169    21  22.70  32.40  21.50  5.831  0.381  5.611  5.312  0.381  4.860  0.000  0.071   97.65   37.59    2.02   34.40    0.00    1.18   1.421   1.086   0.865   0.557   0.377   0.554
 1997 170    22  16.90  32.50  20.60  4.292  0.321  4.106  3.929  0.321  3.554  0.000  0.055  101.94   41.52    2.34   37.95    0.00    1.23   1.063   0.828   0.627   0.393   0.261   0.381
 1997 171    23  23.00  30.50  21.00  5.811  0.492  5.524  5.346  0.492  4.762  0.000  0.092  107.75   46.87    2.83   42.71    0.00    1.32   1.459   1.091   0.836   0.522   0.347   0.507
 1997 172    24  22.70  32.50  23.50  5.906  0.564  5.575  5.463  0.564  4.828  0.000  0.071  113.66   52.33    3.39   47.54    0.00    1.39   1.397   1.074   0.869   0.558   0.374   0.556
 1997 173    25   8.50  32.00  24.50  2.202  0.240  2.060  2.050  0.240  1.756  0.000  0.054  115.86   54.38    3.63   49.30    0.00    1.45   0.543   0.381   0.305   0.197   0.132   0.197
 1997 174    26  10.40  25.50  20.30  2.471  0.301  2.291  2.315  0.301  1.921  0.000  0.092  118.33   56.70    3.94   51.22    0.00    1.54   0.654   0.409   0.319   0.204   0.135   0.200
 1997 175    27  13.00  29.00  21.00  3.225  0.430  2.967  3.037  0.430  2.527  0.000  0.080  121.55   59.73    4.37   53.75    0.00    1.62   0.811   0.537   0.434   0.282   0.187   0.277
 1997 176    28  16.50  31.00  23.50  4.225  0.625  3.848  4.006  0.625  3.320  0.000  0.061  125.78   63.74    4.99   57.07    0.00    1.68   1.014   0.700   0.584   0.383   0.257   0.382
 1997 177    29  24.10  31.50  23.00  6.147  1.021  5.523  2.212  1.021  1.144  0.000  0.047  131.93   65.95    6.01   58.21    0.00    1.73   0.972   0.116   0.034   0.012   0.005   0.005
 1997 178    30  21.80  32.00  23.00  5.563  1.021  4.933  2.094  1.021  1.038  0.000  0.036  137.49   68.05    7.03   59.25    0.00    1.77   0.869   0.113   0.034   0.012   0.005   0.005
 1997 179    31  13.10  32.00  21.20  3.286  0.673  2.866  3.191  0.673  2.491  0.000  0.028  140.78   71.24    7.70   61.74    0.00    1.79   0.709   0.562   0.471   0.288   0.187   0.273
 1997 180    32  23.00  30.70  23.00  5.853  1.321  5.017  5.728  1.321  4.317  0.000  0.091  146.63   76.96    9.03   66.05    0.00    1.88   1.301   0.963   0.805   0.484   0.312   0.453
 1997 181    33  16.40  29.50  23.40  4.096  1.000  3.455  4.036  1.000  2.966  0.000  0.070  150.72   81.00   10.03   69.02    0.00    1.95   0.909   0.656   0.539   0.334   0.216   0.313
 1997 182    34  19.30  29.50  25.00  4.900  1.312  4.047  4.867  1.312  3.461  0.000  0.094  155.62   85.87   11.34   72.48    0.00    2.05   1.074   0.744   0.611   0.393   0.260   0.379
 1997 183    35   8.80  29.50  23.50  2.193  0.639  1.767  2.192  0.639  1.481  0.000  0.072  157.82   88.06   11.98   73.96    0.00    2.12   0.440   0.314   0.265   0.174   0.116   0.171
 1997 184    36   9.50  27.50  20.50  2.260  0.694  1.780  2.258  0.694  1.509  0.000  0.055  160.08   90.32   12.67   75.47    0.00    2.17   0.437   0.320   0.273   0.180   0.121   0.178
 1997 185    37   9.70  29.00  21.50  2.357  0.792  1.817  1.951  0.792  1.116  0.000  0.042  162.43   92.27   13.46   76.59    0.00    2.22   0.944   0.116   0.035   0.012   0.005   0.005
 1997 186    38  16.60  29.70  23.50  4.106  1.472  3.088  2.581  1.472  1.077  0.000  0.032  166.54   94.85   14.94   77.66    0.00    2.25   0.907   0.114   0.035   0.012   0.005   0.005
 1997 187    39  15.70  29.80  22.70  3.862  1.490  2.810  2.612  1.490  1.031  0.000  0.091  170.40   97.46   16.43   78.70    0.00    2.34   0.864   0.111   0.034   0.012   0.005   0.005
 1997 188    40  16.40  29.00  22.50  3.978  1.639  2.798  2.637  1.639  0.928  0.000  0.070  174.38  100.10   18.06   79.62    0.00    2.41   0.766   0.108   0.033   0.012   0.005   0.005
 1997 189    41  21.50  30.50  22.50  5.281  2.312  3.582  3.198  2.312  0.833  0.000  0.054  179.66  103.30   20.38   80.46    0.00    2.46   0.674   0.104   0.033   0.012   0.005   0.005
 1997 190    42  18.90  31.50  22.50  4.676  2.167  3.050  2.943  2.167  0.735  0.000  0.041  184.34  106.24   22.54   81.19    0.00    2.51   0.582   0.100   0.032   0.011   0.005   0.005
 1997 191    43  11.40  27.50  23.30  2.710  1.223  1.690  2.707  1.223  1.452  0.000  0.032  187.05  108.95   23.77   82.64    0.00    2.54   0.405   0.327   0.257   0.170   0.116   0.177
 1997 192    44  11.60  31.00  22.00  2.881  1.356  1.734  2.878  1.356  1.430  0.000  0.092  189.93  111.83   25.12   84.07    0.00    2.63   0.465   0.316   0.237   0.153   0.102   0.156
 1997 193    45  19.80  27.50  23.00  4.747  2.302  2.779  4.741  2.302  2.369  0.000  0.070  194.67  116.57   27.42   86.44    0.00    2.70   0.762   0.511   0.401   0.263   0.172   0.260
 1997 194    46  21.50  31.00  23.50  5.359  2.679  3.047  5.353  2.679  2.580  0.000  0.095  200.03  121.92   30.10   89.02    0.00    2.80   0.800   0.546   0.451   0.295   0.192   0.294
 1997 195    47  18.10  32.00  24.50  4.573  2.357  2.520  4.568  2.357  2.138  0.000  0.073  204.61  126.49   32.46   91.16    0.00    2.87   0.662   0.483   0.383   0.235   0.149   0.225
 1997 196    48  10.20  29.50  22.00  2.474  1.314  1.319  2.471  1.314  1.061  0.000  0.096  207.08  128.96   33.77   92.22    0.00    2.96   0.320   0.241   0.191   0.120   0.083   0.106
 1997 197    49   7.10  25.50  21.00  1.635  0.886  0.851  1.632  0.886  0.661  0.000  0.086  208.72  130.59   34.66   92.88    0.00    3.05   0.191   0.138   0.118   0.081   0.060   0.072
 1997 198    50  15.50  29.50  22.50  3.764  2.069  1.928  3.759  2.069  1.596  0.000  0.094  212.48  134.35   36.73   94.48    0.00    3.14   0.464   0.332   0.285   0.194   0.139   0.182
 1997 199    51  16.20  28.50  22.00  3.865  2.173  1.924  3.859  2.173  1.614  0.000  0.072  216.34  138.21   38.90   96.09    0.00    3.21   0.467   0.335   0.289   0.196   0.138   0.189
 1997 200    52  17.40  30.30  22.20  4.229  2.428  2.049  4.224  2.428  1.740  0.000  0.055  220.57  142.43   41.33   97.83    0.00    3.27   0.494   0.363   0.314   0.212   0.147   0.209
 1997 201    53  12.00  28.50  20.60  2.822  1.654  1.329  2.818  1.654  1.122  0.000  0.042  223.40  145.25   42.98   98.96    0.00    3.31   0.312   0.232   0.204   0.138   0.096   0.140
 1997 202    54   7.10  29.50  20.60  1.687  1.003  0.778  1.684  1.003  0.616  0.000  0.065  225.08  146.93   43.99   99.57    0.00    3.38   0.173   0.125   0.112   0.076   0.052   0.078
 1997 203    55  23.10  30.50  22.00  5.602  3.360  2.552  5.594  3.360  2.147  0.000  0.087  230.68  152.53   47.35  101.72    0.00    3.46   0.605   0.431   0.388   0.267   0.184   0.272
 1997 204    56  16.80  32.00  22.50  4.146  2.530  1.840  4.141  2.530  1.544  0.000  0.067  234.83  156.67   49.88  103.26    0.00    3.53   0.474   0.294   0.266   0.187   0.129   0.194
 1997 205    57  15.90  31.70  22.30  3.917  2.428  1.695  3.911  2.428  1.385  0.000  0.098  238.75  160.58   52.30  104.65    0.00    3.63   0.469   0.254   0.223   0.160   0.111   0.168
 1997 206    58  20.80  30.00  21.50  4.999  3.141  2.114  4.991  3.141  1.763  0.000  0.086  243.75  165.57   55.45  106.41    0.00    3.72   0.582   0.325   0.284   0.207   0.144   0.220
 1997 207    59  20.70  32.00  23.00  5.127  3.828  2.119  5.007  3.828  1.113  0.000  0.066  248.87  170.58   59.27  107.52    0.00    3.78   0.973   0.091   0.028   0.011   0.005   0.005
 1997 208    60  18.60  32.50  23.50  4.637  3.512  1.871  4.529  3.512  0.967  0.000  0.050  253.51  175.11   62.79  108.49    0.00    3.83   0.835   0.084   0.027   0.011   0.005   0.005
 1997 209    61  21.20  32.00  23.00  5.232  4.010  2.063  4.887  4.010  0.838  0.000  0.038  258.74  179.99   66.80  109.33    0.00    3.87   0.714   0.078   0.026   0.010   0.005   0.005
 1997 210    62  12.60  31.00  23.50  3.083  2.075  1.190  3.078  2.075  0.974  0.000  0.029  261.83  183.07   68.87  110.30    0.00    3.90   0.857   0.073   0.025   0.010   0.005   0.005
 1997 211    63   9.80  29.50  22.00  2.343  1.560  0.892  2.339  1.560  0.682  0.000  0.098  264.17  185.41   70.43  110.98    0.00    4.00   0.250   0.130   0.092   0.073   0.052   0.084
 1997 212    64   7.80  27.00  21.50  1.812  1.210  0.686  1.809  1.210  0.519  0.000  0.080  265.98  187.22   71.64  111.50    0.00    4.08   0.183   0.116   0.070   0.052   0.037   0.061
 1997 213    65  10.80  27.60  22.60  2.543  1.699  0.961  2.538  1.699  0.779  0.000  0.061  268.52  189.76   73.34  112.28    0.00    4.14   0.271   0.173   0.109   0.078   0.056   0.092
 1997 214    66  21.20  31.00  22.60  5.176  3.466  1.950  5.167  3.466  1.600  0.000  0.102  273.70  194.93   76.81  113.88    0.00    4.24   0.538   0.357   0.229   0.164   0.118   0.194
 1997 215    67  18.60  33.40  22.30  4.640  3.405  1.726  4.633  3.405  1.150  0.000  0.077  278.34  199.56   80.21  115.03    0.00    4.32   0.996   0.111   0.025   0.010   0.004   0.005
 1997 216    68  11.80  29.50  24.20  2.859  1.938  1.052  2.855  1.938  0.858  0.000  0.059  281.20  202.41   82.15  115.89    0.00    4.38   0.733   0.089   0.021   0.008   0.004   0.004
 1997 217    69  13.50  30.00  22.50  3.247  2.203  1.191  3.241  2.203  0.993  0.000  0.045  284.44  205.66   84.35  116.88    0.00    4.42   0.303   0.232   0.176   0.104   0.066   0.112
 1997 218    70   7.50  28.00  21.00  1.753  1.191  0.641  1.750  1.191  0.476  0.000  0.083  286.20  207.41   85.54  117.36    0.00    4.50   0.147   0.108   0.090   0.050   0.031   0.049
 1997 219    71  12.60  30.00  22.50  3.039  2.066  1.112  3.034  2.066  0.885  0.000  0.083  289.24  210.44   87.61  118.24    0.00    4.59   0.268   0.193   0.163   0.097   0.066   0.098
 1997 220    72  21.90  30.40  21.10  5.248  3.570  1.918  5.239  3.570  1.606  0.000  0.063  294.48  215.68   91.18  119.85    0.00    4.65   0.479   0.342   0.293   0.183   0.124   0.185
 1997 221    73  14.10  31.40  23.00  3.458  2.357  1.259  3.453  2.357  1.047  0.000  0.048  297.94  219.13   93.54  120.90    0.00    4.70   0.301   0.220   0.193   0.124   0.084   0.126
 1997 222    74  21.00  30.00  23.00  5.072  3.961  1.844  5.063  3.961  1.066  0.000  0.036  303.01  224.19   97.50  121.97    0.00    4.73   0.901   0.110   0.034   0.011   0.005   0.005
 1997 223    75  21.40  30.80  22.50  5.188  4.139  1.884  5.091  4.139  0.925  0.000  0.027  308.20  229.29  101.64  122.89    0.00    4.76   0.769   0.103   0.033   0.011   0.005   0.005
 1997 224    76  16.70  30.00  22.40  4.007  3.186  1.453  4.001  3.186  0.794  0.000  0.021  312.21  233.29  104.82  123.68    0.00    4.78   0.646   0.096   0.031   0.011   0.005   0.005
 1997 225    77  17.50  30.50  23.60  4.254  3.397  1.541  4.099  3.397  0.687  0.000  0.016  316.46  237.39  108.22  124.37    0.00    4.80   0.547   0.090   0.030   0.011   0.005   0.005
 1997 226    78  16.90  31.50  23.50  4.146  3.311  1.501  3.917  3.311  0.594  0.000  0.012  320.61  241.30  111.53  124.97    0.00    4.81   0.461   0.084   0.029   0.011   0.005   0.005
 1997 227    79   8.70  27.40  23.40  2.040  1.396  0.738  2.037  1.396  0.632  0.000  0.009  322.65  243.34  112.93  125.60    0.00    4.82   0.525   0.066   0.024   0.009   0.004   0.004
 1997 228    80  18.30  34.00  21.20  4.545  3.546  1.656  4.538  3.546  0.886  0.000  0.106  327.19  247.88  116.47  126.48    0.00    4.92   0.765   0.075   0.027   0.010   0.005   0.005
 1997 229    81  13.20  30.50  23.50  3.209  2.360  1.170  3.204  2.360  0.764  0.000  0.079  330.40  251.08  118.83  127.25    0.00    5.00   0.650   0.069   0.026   0.010   0.004   0.005
 1997 230    82  17.50  34.00  22.50  4.378  2.980  1.606  4.372  2.980  1.332  0.000  0.060  334.78  255.45  121.81  128.58    0.00    5.06   0.387   0.283   0.252   0.153   0.097   0.160
 1997 231    83  20.40  30.50  21.50  4.913  3.341  1.805  4.905  3.341  1.452  0.000  0.112  339.70  260.36  125.15  130.03    0.00    5.17   0.448   0.329   0.270   0.155   0.097   0.152
 1997 232    84  19.40  29.50  22.50  4.649  3.160  1.711  4.641  3.160  1.398  0.000  0.084  344.34  265.00  128.31  131.43    0.00    5.26   0.418   0.304   0.256   0.156   0.106   0.158
 1997 233    85  26.20  33.50  23.80  6.603  4.477  2.444  6.593  4.477  2.053  0.000  0.063  350.95  271.59  132.79  133.48    0.00    5.32   0.629   0.468   0.365   0.223   0.148   0.219
 1997 234    86  15.50  33.50  23.50  3.906  2.647  1.447  3.900  2.647  1.138  0.000  0.114  354.85  275.49  135.44  134.62    0.00    5.43   0.349   0.258   0.200   0.125   0.083   0.123
 1997 235    87   6.80  32.50  22.50  1.682  1.138  0.626  1.680  1.138  0.457  0.000  0.085  356.53  277.17  136.57  135.08    0.00    5.52   0.137   0.100   0.081   0.052   0.035   0.052
 1997 236    88  15.90  31.50  22.00  3.877  2.618  1.450  3.871  2.618  1.190  0.000  0.064  360.41  281.04  139.19  136.27    0.00    5.58   0.354   0.254   0.212   0.138   0.093   0.138
 1997 237    89  21.80  32.40  23.00  5.401  3.639  2.030  5.393  3.639  1.706  0.000  0.048  365.81  286.44  142.83  137.97    0.00    5.63   0.538   0.375   0.291   0.188   0.126   0.188
 1997 238    90  15.70  31.50  22.20  3.841  2.586  1.445  3.834  2.586  1.134  0.000  0.115  369.65  290.27  145.42  139.11    0.00    5.74   0.360   0.247   0.193   0.125   0.084   0.125
 1997 239    91  17.60  32.50  23.00  4.370  2.937  1.652  4.363  2.937  1.341  0.000  0.085  374.02  294.63  148.35  140.45    0.00    5.83   0.438   0.291   0.223   0.145   0.097   0.146
 1997 240    92   9.80  32.50  20.50  2.394  1.607  0.908  2.391  1.607  0.665  0.000  0.119  376.42  297.02  149.96  141.11    0.00    5.95   0.214   0.142   0.113   0.074   0.049   0.074
 1997 241    93  22.90  31.20  22.50  5.591  3.745  2.129  5.582  3.745  1.749  0.000  0.088  382.01  302.61  153.71  142.86    0.00    6.04   0.567   0.391   0.291   0.187   0.126   0.186
 1997 242    94  21.00  30.00  23.40  5.099  3.415  1.943  5.091  3.415  1.556  0.000  0.120  387.11  307.70  157.12  144.42    0.00    6.16   0.488   0.348   0.264   0.171   0.115   0.170
 1997 243    95  22.00  31.00  22.70  5.365  3.592  2.046  5.356  3.592  1.675  0.000  0.089  392.47  313.05  160.71  146.09    0.00    6.25   0.507   0.363   0.292   0.190   0.129   0.194
 1997 244    96  18.50  33.00  23.00  4.612  3.404  1.760  4.605  3.404  1.135  0.000  0.066  397.09  317.66  164.12  147.23    0.00    6.31   0.964   0.116   0.034   0.011   0.005   0.005
 1997 245    97  18.00  30.50  23.50  4.382  3.329  1.673  4.375  3.329  0.996  0.000  0.049  401.47  322.03  167.45  148.23    0.00    6.36   0.834   0.110   0.032   0.011   0.005   0.005
 1997 246    98  11.20  28.60  23.00  2.659  1.779  1.016  2.655  1.779  0.839  0.000  0.036  404.13  324.69  169.23  149.06    0.00    6.40   0.693   0.097   0.029   0.010   0.004   0.004
 1997 247    99  11.60  30.00  23.50  2.805  1.874  1.075  2.800  1.874  0.843  0.000  0.083  406.93  327.49  171.10  149.91    0.00    6.48   0.720   0.082   0.025   0.009   0.004   0.004
 1997 248   100  18.80  32.50  22.50  4.649  3.103  1.787  4.642  3.103  1.437  0.000  0.102  411.58  332.13  174.20  151.34    0.00    6.58   0.475   0.322   0.232   0.148   0.101   0.159

*DSSAT Cropping System Model Ver. 4.5.1.023 -Stub         OCT 13, 2014; 10:48:17
                                                                                
*RUN   2        : 97 DATE1 F-MIX            CRGRO045 GHNY9701    2              
 MODEL          : CRGRO045 - Peanut                                             
 EXPERIMENT     : GHNY9701 PN able [sltx] with oversized content [1 SALO], only 
 DATA PATH      :                                                               
 TREATMENT  2   : 97 DATE1 F-MIX            CRGRO045                            
  
!                                                                                                                                                Soil evaporation (mm/d) by soil depth (cm):
!                                                                                                                                                0-5    5-15   15-30   30-45   45-60   60-90
@YEAR DOY   DAS   SRAA  TMAXA  TMINA   EOAA   EOPA   EOSA   ETAA   EPAA   ESAA   EFAA   EMAA    EOAC    ETAC    EPAC    ESAC    EFAC    EMAC    ES1D    ES2D    ES3D    ES4D    ES5D    ES6D    
 1997 149     1  23.50  32.50  23.00  5.953  0.000  5.953  1.466  0.000  1.421  0.000  0.044    5.95    1.47    0.00    1.42    0.00    0.04   0.044   0.099   0.149   0.323   0.287   0.521
 1997 150     2  24.10  34.00  24.20  6.250  0.000  6.250  1.442  0.000  1.408  0.000  0.034   12.20    2.91    0.00    2.83    0.00    0.08   0.043   0.098   0.147   0.319   0.284   0.518
 1997 151     3  22.50  33.00  24.50  5.787  0.000  5.787  1.419  0.000  1.393  0.000  0.026   17.99    4.33    0.00    4.22    0.00    0.10   0.043   0.097   0.145   0.316   0.280   0.512
 1997 152     4  22.80  33.00  23.00  5.803  0.000  5.803  0.454  0.000  0.434  0.000  0.020   23.79    4.78    0.00    4.66    0.00    0.12   0.349   0.049   0.015   0.011   0.005   0.004
 1997 153     5  19.00  33.60  23.40  4.872  0.000  4.872  0.417  0.000  0.402  0.000  0.015   28.67    5.20    0.00    5.06    0.00    0.14   0.317   0.049   0.015   0.011   0.005   0.004
 1997 154     6  22.90  33.50  22.30  5.814  0.000  5.814  0.384  0.000  0.372  0.000  0.012   34.48    5.58    0.00    5.43    0.00    0.15   0.289   0.048   0.015   0.011   0.005   0.004
 1997 155     7  13.20  31.50  23.00  3.295  0.000  3.295  0.657  0.000  0.648  0.000  0.009   37.77    6.24    0.00    6.08    0.00    0.16   0.564   0.048   0.015   0.011   0.005   0.004
 1997 156     8  13.10  27.00  21.50  3.158  0.000  3.158  0.987  0.000  0.898  0.000  0.089   40.93    7.23    0.00    6.98    0.00    0.25   0.815   0.048   0.014   0.011   0.005   0.004
 1997 157     9  20.80  32.00  21.30  5.269  0.000  5.269  0.952  0.000  0.884  0.000  0.068   46.20    8.18    0.00    7.86    0.00    0.32   0.801   0.048   0.014   0.011   0.005   0.004
 1997 158    10  15.10  31.00  22.80  3.831  0.041  3.808  1.006  0.041  0.871  0.000  0.093   50.03    9.18    0.04    8.73    0.00    0.41   0.788   0.047   0.014   0.011   0.005   0.004
 1997 159    11  16.20  33.60  23.90  4.241  0.053  4.211  0.922  0.053  0.797  0.000  0.072   54.27   10.11    0.09    9.53    0.00    0.48   0.715   0.047   0.014   0.011   0.005   0.004
 1997 160    12  23.00  34.00  23.00  5.990  0.089  5.940  0.873  0.089  0.730  0.000  0.055   60.26   10.98    0.18   10.26    0.00    0.54   0.648   0.047   0.014   0.011   0.005   0.004
 1997 161    13  16.60  32.40  23.50  4.255  0.082  4.208  0.791  0.082  0.667  0.000  0.042   64.52   11.77    0.27   10.92    0.00    0.58   0.585   0.046   0.014   0.011   0.005   0.004
 1997 162    14   8.50  27.20  24.80  2.075  0.052  2.046  0.966  0.052  0.882  0.000  0.032   66.59   12.74    0.32   11.81    0.00    0.61   0.801   0.046   0.014   0.011   0.005   0.004
 1997 163    15  20.80  30.50  21.00  5.224  0.160  5.133  1.331  0.160  1.081  0.000  0.091   71.82   14.07    0.48   12.89    0.00    0.70   0.999   0.047   0.014   0.011   0.005   0.004
 1997 164    16  10.70  31.00  23.50  2.738  0.094  2.685  2.453  0.094  2.290  0.000  0.070   74.55   16.52    0.57   15.18    0.00    0.77   0.803   0.458   0.279   0.277   0.195   0.277
 1997 165    17  15.80  31.00  21.60  4.048  0.158  3.958  3.636  0.158  3.385  0.000  0.093   78.60   20.16    0.73   18.56    0.00    0.87   1.106   0.821   0.509   0.350   0.247   0.352
 1997 166    18  14.40  30.00  22.50  3.648  0.162  3.556  3.287  0.162  3.042  0.000  0.083   82.25   23.44    0.89   21.60    0.00    0.95   0.935   0.700   0.517   0.327   0.232   0.331
 1997 167    19  16.90  30.60  22.90  4.300  0.214  4.177  3.885  0.214  3.607  0.000  0.064   86.55   27.33    1.11   25.21    0.00    1.01   1.126   0.859   0.623   0.376   0.256   0.367
 1997 168    20  21.00  30.20  20.60  5.284  0.288  5.118  4.786  0.288  4.405  0.000  0.093   91.83   32.11    1.39   29.62    0.00    1.11   1.365   1.023   0.766   0.475   0.317   0.460
 1997 169    21  22.70  32.40  21.50  5.834  0.341  5.637  5.295  0.341  4.882  0.000  0.071   97.67   37.41    1.73   34.50    0.00    1.18   1.427   1.091   0.869   0.559   0.379   0.558
 1997 170    22  16.90  32.50  20.60  4.294  0.289  4.127  3.916  0.289  3.572  0.000  0.055  101.96   41.32    2.02   38.07    0.00    1.23   1.068   0.832   0.631   0.395   0.263   0.384
 1997 171    23  23.00  30.50  21.00  5.814  0.444  5.556  5.327  0.444  4.790  0.000  0.092  107.78   46.65    2.47   42.86    0.00    1.32   1.467   1.097   0.841   0.526   0.349   0.510
 1997 172    24  22.70  32.50  23.50  5.909  0.512  5.610  5.442  0.512  4.859  0.000  0.071  113.69   52.09    2.98   47.72    0.00    1.39   1.405   1.081   0.875   0.562   0.377   0.559
 1997 173    25   8.50  32.00  24.50  2.203  0.218  2.074  2.041  0.218  1.769  0.000  0.054  115.89   54.13    3.20   49.49    0.00    1.45   0.547   0.384   0.308   0.199   0.133   0.198
 1997 174    26  10.40  25.50  20.30  2.473  0.274  2.310  2.304  0.274  1.938  0.000  0.092  118.36   56.44    3.47   51.42    0.00    1.54   0.659   0.413   0.322   0.206   0.136   0.201
 1997 175    27  13.00  29.00  21.00  3.227  0.392  2.994  3.023  0.392  2.551  0.000  0.080  121.59   59.46    3.86   53.98    0.00    1.62   0.818   0.542   0.438   0.285   0.189   0.279
 1997 176    28  16.50  31.00  23.50  4.229  0.572  3.886  3.986  0.572  3.353  0.000  0.061  125.82   63.45    4.44   57.33    0.00    1.68   1.023   0.707   0.590   0.387   0.260   0.386
 1997 177    29  24.10  31.50  23.00  6.152  0.939  5.583  2.129  0.939  1.143  0.000  0.047  131.97   65.58    5.38   58.47    0.00    1.73   0.971   0.116   0.035   0.012   0.005   0.005
 1997 178    30  21.80  32.00  23.00  5.567  0.959  4.979  2.033  0.959  1.038  0.000  0.036  137.54   67.61    6.33   59.51    0.00    1.77   0.869   0.114   0.034   0.012   0.005   0.005
 1997 179    31  13.10  32.00  21.20  3.288  0.634  2.895  3.178  0.634  2.516  0.000  0.028  140.82   70.79    6.97   62.03    0.00    1.79   0.716   0.568   0.475   0.292   0.189   0.276
 1997 180    32  23.00  30.70  23.00  5.858  1.248  5.074  5.706  1.248  4.367  0.000  0.091  146.68   76.49    8.22   66.39    0.00    1.88   1.315   0.974   0.814   0.490   0.316   0.458
 1997 181    33  16.40  29.50  23.40  4.099  0.953  3.493  4.022  0.953  2.999  0.000  0.070  150.78   80.52    9.17   69.39    0.00    1.95   0.918   0.663   0.545   0.338   0.219   0.316
 1997 182    34  19.30  29.50  25.00  4.903  1.261  4.089  4.854  1.261  3.498  0.000  0.094  155.68   85.37   10.43   72.89    0.00    2.05   1.085   0.751   0.618   0.398   0.263   0.384
 1997 183    35   8.80  29.50  23.50  2.194  0.625  1.783  2.192  0.625  1.495  0.000  0.072  157.88   87.56   11.06   74.39    0.00    2.12   0.443   0.317   0.268   0.175   0.118   0.173
 1997 184    36   9.50  27.50  20.50  2.261  0.681  1.797  2.259  0.681  1.523  0.000  0.055  160.14   89.82   11.74   75.91    0.00    2.17   0.441   0.323   0.276   0.182   0.122   0.180
 1997 185    37   9.70  29.00  21.50  2.358  0.745  1.834  2.356  0.745  1.569  0.000  0.042  162.50   92.18   12.48   77.48    0.00    2.22   0.442   0.333   0.287   0.190   0.128   0.189
 1997 186    38  16.60  29.70  23.50  4.113  1.444  3.120  2.596  1.444  1.119  0.000  0.032  166.61   94.77   13.93   78.60    0.00    2.25   0.951   0.112   0.034   0.012   0.005   0.005
 1997 187    39  15.70  29.80  22.70  3.868  1.466  2.838  2.627  1.466  1.069  0.000  0.091  170.48   97.40   15.39   79.67    0.00    2.34   0.904   0.109   0.034   0.012   0.005   0.005
 1997 188    40  16.40  29.00  22.50  3.983  1.621  2.820  2.654  1.621  0.963  0.000  0.070  174.46  100.05   17.01   80.63    0.00    2.41   0.802   0.106   0.033   0.012   0.005   0.005
 1997 189    41  21.50  30.50  22.50  5.286  2.298  3.602  3.215  2.298  0.864  0.000  0.054  179.75  103.27   19.31   81.49    0.00    2.46   0.707   0.103   0.033   0.012   0.005   0.005
 1997 190    42  18.90  31.50  22.50  4.681  2.135  3.088  2.939  2.135  0.763  0.000  0.041  184.43  106.21   21.45   82.26    0.00    2.51   0.611   0.098   0.032   0.011   0.005   0.005
 1997 191    43  11.40  27.50  23.30  2.712  1.213  1.704  2.709  1.213  1.464  0.000  0.032  187.14  108.92   22.66   83.72    0.00    2.54   0.414   0.328   0.256   0.171   0.117   0.178
 1997 192    44  11.60  31.00  22.00  2.881  1.354  1.736  2.878  1.354  1.432  0.000  0.092  190.02  111.79   24.01   85.15    0.00    2.63   0.466   0.318   0.237   0.154   0.102   0.156
 1997 193    45  19.80  27.50  23.00  4.746  2.309  2.770  4.741  2.309  2.361  0.000  0.070  194.77  116.54   26.32   87.51    0.00    2.70   0.759   0.510   0.400   0.263   0.170   0.259
 1997 194    46  21.50  31.00  23.50  5.357  2.699  3.021  5.351  2.699  2.557  0.000  0.095  200.12  121.89   29.02   90.07    0.00    2.79   0.794   0.542   0.448   0.293   0.189   0.292
 1997 195    47  18.10  32.00  24.50  4.571  2.385  2.484  4.566  2.385  2.107  0.000  0.073  204.69  126.45   31.41   92.18    0.00    2.87   0.653   0.477   0.378   0.232   0.146   0.222
 1997 196    48  10.20  29.50  22.00  2.472  1.336  1.291  2.469  1.336  1.037  0.000  0.096  207.17  128.92   32.74   93.22    0.00    2.96   0.313   0.236   0.187   0.117   0.081   0.103
 1997 197    49   7.10  25.50  21.00  1.633  0.905  0.827  1.630  0.905  0.640  0.000  0.085  208.80  130.55   33.65   93.85    0.00    3.05   0.185   0.134   0.114   0.079   0.058   0.070
 1997 198    50  15.50  29.50  22.50  3.759  2.122  1.861  3.753  2.122  1.538  0.000  0.094  212.56  134.30   35.77   95.39    0.00    3.14   0.447   0.320   0.275   0.187   0.134   0.175
 1997 199    51  16.20  28.50  22.00  3.859  2.240  1.841  3.853  2.240  1.541  0.000  0.072  216.42  138.16   38.01   96.93    0.00    3.21   0.446   0.320   0.276   0.187   0.132   0.181
 1997 200    52  17.40  30.30  22.20  4.222  2.517  1.940  4.216  2.517  1.644  0.000  0.055  220.64  142.37   40.53   98.58    0.00    3.27   0.467   0.343   0.297   0.200   0.139   0.198
 1997 201    53  12.00  28.50  20.60  2.817  1.723  1.244  2.812  1.723  1.047  0.000  0.042  223.45  145.19   42.25   99.63    0.00    3.31   0.292   0.216   0.191   0.129   0.090   0.130
 1997 202    54   7.10  29.50  20.60  1.683  1.051  0.719  1.681  1.051  0.564  0.000  0.066  225.14  146.87   43.30  100.19    0.00    3.38   0.159   0.114   0.102   0.070   0.048   0.071
 1997 203    55  23.10  30.50  22.00  5.590  3.539  2.333  5.582  3.539  1.955  0.000  0.087  230.73  152.45   46.84  102.15    0.00    3.46   0.553   0.391   0.353   0.243   0.167   0.248
 1997 204    56  16.80  32.00  22.50  4.138  2.677  1.662  4.131  2.677  1.388  0.000  0.067  234.87  156.58   49.52  103.53    0.00    3.53   0.428   0.263   0.238   0.168   0.116   0.174
 1997 205    57  15.90  31.70  22.30  3.905  2.580  1.508  3.899  2.580  1.221  0.000  0.099  238.77  160.48   52.10  104.75    0.00    3.63   0.415   0.223   0.196   0.141   0.098   0.148
 1997 206    58  20.80  30.00  21.50  4.984  3.354  1.853  4.975  3.354  1.534  0.000  0.086  243.76  165.45   55.45  106.29    0.00    3.72   0.508   0.283   0.246   0.180   0.126   0.192
 1997 207    59  20.70  32.00  23.00  5.112  3.918  1.831  5.104  3.918  1.120  0.000  0.066  248.87  170.56   59.37  107.41    0.00    3.78   0.980   0.091   0.028   0.011   0.005   0.005
 1997 208    60  18.60  32.50  23.50  4.625  3.595  1.592  4.618  3.595  0.972  0.000  0.050  253.49  175.18   62.96  108.38    0.00    3.83   0.841   0.084   0.027   0.011   0.005   0.005
 1997 209    61  21.20  32.00  23.00  5.218  4.319  1.728  5.198  4.319  0.841  0.000  0.038  258.71  180.37   67.28  109.22    0.00    3.87   0.718   0.078   0.026   0.010   0.005   0.005
 1997 210    62  12.60  31.00  23.50  3.076  2.215  0.980  3.071  2.215  0.827  0.000  0.029  261.79  183.45   69.50  110.05    0.00    3.90   0.729   0.061   0.021   0.009   0.004   0.004
 1997 211    63   9.80  29.50  22.00  2.335  1.700  0.722  2.331  1.700  0.539  0.000  0.092  264.12  185.78   71.20  110.59    0.00    3.99   0.199   0.103   0.072   0.058   0.041   0.067
 1997 212    64   7.80  27.00  21.50  1.804  1.323  0.546  1.800  1.323  0.407  0.000  0.069  265.92  187.58   72.52  110.99    0.00    4.06   0.144   0.091   0.054   0.041   0.029   0.048
 1997 213    65  10.80  27.60  22.60  2.532  1.867  0.756  2.527  1.867  0.595  0.000  0.065  268.46  190.10   74.39  111.59    0.00    4.13   0.208   0.132   0.081   0.060   0.043   0.070
 1997 214    66  21.20  31.00  22.60  5.153  3.828  1.509  5.144  3.828  1.217  0.000  0.099  273.61  195.25   78.22  112.81    0.00    4.23   0.412   0.272   0.171   0.124   0.090   0.148
 1997 215    67  18.60  33.40  22.30  4.622  3.470  1.312  4.614  3.470  1.069  0.000  0.075  278.23  199.86   81.69  113.88    0.00    4.30   0.928   0.102   0.023   0.009   0.004   0.004
 1997 216    68  11.80  29.50  24.20  2.849  2.159  0.786  2.844  2.159  0.628  0.000  0.057  281.08  202.71   83.85  114.50    0.00    4.36   0.538   0.064   0.014   0.006   0.003   0.003
 1997 217    69  13.50  30.00  22.50  3.236  2.468  0.875  3.230  2.468  0.719  0.000  0.043  284.32  205.94   86.31  115.22    0.00    4.40   0.222   0.167   0.126   0.074   0.048   0.081
 1997 218    70   7.50  28.00  21.00  1.743  1.338  0.462  1.740  1.338  0.342  0.000  0.060  286.06  207.68   87.65  115.56    0.00    4.46   0.106   0.078   0.065   0.036   0.022   0.036
 1997 219    71  12.60  30.00  22.50  3.024  2.325  0.797  3.018  2.325  0.604  0.000  0.089  289.08  210.69   89.98  116.17    0.00    4.55   0.183   0.131   0.111   0.066   0.045   0.067
 1997 220    72  21.90  30.40  21.10  5.223  4.034  1.356  5.213  4.034  1.111  0.000  0.068  294.31  215.91   94.01  117.28    0.00    4.62   0.332   0.236   0.202   0.127   0.086   0.128
 1997 221    73  14.10  31.40  23.00  3.443  2.676  0.875  3.437  2.676  0.709  0.000  0.051  297.75  219.34   96.69  117.99    0.00    4.67   0.603   0.071   0.022   0.007   0.003   0.003
 1997 222    74  21.00  30.00  23.00  5.049  3.955  1.263  5.040  3.955  1.046  0.000  0.039  302.80  224.38  100.64  119.03    0.00    4.71   0.881   0.110   0.034   0.011   0.005   0.005
 1997 223    75  21.40  30.80  22.50  5.167  4.222  1.267  5.158  4.222  0.907  0.000  0.029  307.97  229.54  104.86  119.94    0.00    4.74   0.751   0.103   0.033   0.011   0.005   0.005
 1997 224    76  16.70  30.00  22.40  3.993  3.187  0.961  3.986  3.187  0.776  0.000  0.022  311.96  233.53  108.05  120.72    0.00    4.76   0.628   0.096   0.031   0.011   0.005   0.005
 1997 225    77  17.50  30.50  23.60  4.241  3.545  1.006  4.233  3.545  0.671  0.000  0.017  316.20  237.76  111.60  121.39    0.00    4.78   0.530   0.090   0.030   0.011   0.005   0.005
 1997 226    78  16.90  31.50  23.50  4.134  3.527  0.966  4.127  3.527  0.587  0.000  0.013  320.33  241.89  115.12  121.98    0.00    4.79   0.454   0.084   0.029   0.011   0.005   0.005
 1997 227    79   8.70  27.40  23.40  2.035  1.625  0.469  2.031  1.625  0.396  0.000  0.010  322.37  243.92  116.75  122.37    0.00    4.80   0.329   0.042   0.015   0.006   0.002   0.002
 1997 228    80  18.30  34.00  21.20  4.526  3.615  1.044  4.518  3.615  0.795  0.000  0.108  326.89  248.44  120.36  123.17    0.00    4.91   0.689   0.065   0.024   0.009   0.004   0.004
 1997 229    81  13.20  30.50  23.50  3.197  2.561  0.729  3.191  2.561  0.549  0.000  0.081  330.09  251.63  122.92  123.72    0.00    4.99   0.470   0.048   0.018   0.007   0.003   0.003
 1997 230    82  17.50  34.00  22.50  4.364  3.501  0.989  4.356  3.501  0.795  0.000  0.061  334.46  255.98  126.42  124.51    0.00    5.05   0.677   0.079   0.025   0.008   0.003   0.003
 1997 231    83  20.40  30.50  21.50  4.879  3.923  1.096  4.870  3.923  0.832  0.000  0.115  339.33  260.85  130.35  125.34    0.00    5.16   0.254   0.190   0.155   0.089   0.056   0.088
 1997 232    84  19.40  29.50  22.50  4.621  3.724  1.028  4.612  3.724  0.802  0.000  0.086  343.96  265.46  134.07  126.14    0.00    5.25   0.239   0.175   0.147   0.090   0.061   0.091
 1997 233    85  26.20  33.50  23.80  6.565  5.303  1.449  6.554  5.303  1.186  0.000  0.064  350.52  272.02  139.37  127.33    0.00    5.31   0.364   0.270   0.211   0.129   0.086   0.127
 1997 234    86  15.50  33.50  23.50  3.879  3.141  0.847  3.872  3.141  0.614  0.000  0.117  354.40  275.89  142.51  127.95    0.00    5.43   0.190   0.139   0.107   0.067   0.045   0.066
 1997 235    87   6.80  32.50  22.50  1.672  1.355  0.364  1.669  1.355  0.263  0.000  0.050  356.07  277.56  143.87  128.21    0.00    5.48   0.080   0.057   0.046   0.030   0.020   0.030
 1997 236    88  15.90  31.50  22.00  3.854  3.118  0.846  3.847  3.118  0.654  0.000  0.076  359.93  281.41  146.99  128.86    0.00    5.56   0.197   0.139   0.116   0.075   0.051   0.076
 1997 237    89  21.80  32.40  23.00  5.371  4.347  1.178  5.361  4.347  0.958  0.000  0.056  365.30  286.77  151.33  129.82    0.00    5.61   0.304   0.210   0.162   0.105   0.071   0.106
 1997 238    90  15.70  31.50  22.20  3.813  3.090  0.832  3.806  3.090  0.600  0.000  0.116  369.11  290.57  154.42  130.42    0.00    5.73   0.191   0.131   0.101   0.066   0.044   0.066
 1997 239    91  17.60  32.50  23.00  4.341  3.519  0.948  4.334  3.519  0.724  0.000  0.091  373.45  294.91  157.94  131.14    0.00    5.82   0.238   0.157   0.120   0.078   0.052   0.079
 1997 240    92   9.80  32.50  20.50  2.377  1.927  0.518  2.372  1.927  0.372  0.000  0.073  375.83  297.28  159.87  131.52    0.00    5.89   0.120   0.079   0.063   0.041   0.028   0.041
 1997 241    93  22.90  31.20  22.50  5.553  4.499  1.216  5.543  4.499  0.938  0.000  0.106  381.38  302.82  164.37  132.45    0.00    6.00   0.305   0.210   0.156   0.100   0.067   0.100
 1997 242    94  21.00  30.00  23.40  5.062  4.103  1.106  5.052  4.103  0.838  0.000  0.111  386.44  307.87  168.47  133.29    0.00    6.11   0.264   0.188   0.142   0.092   0.062   0.092
 1997 243    95  22.00  31.00  22.70  5.330  4.323  1.163  5.320  4.323  0.916  0.000  0.082  391.77  313.19  172.79  134.21    0.00    6.19   0.280   0.198   0.159   0.104   0.070   0.106
 1997 244    96  18.50  33.00  23.00  4.585  3.720  1.000  4.577  3.720  0.796  0.000  0.060  396.36  317.77  176.51  135.00    0.00    6.25   0.679   0.079   0.023   0.008   0.003   0.003
 1997 245    97  18.00  30.50  23.50  4.359  3.537  0.950  4.351  3.537  0.769  0.000  0.044  400.72  322.12  180.05  135.77    0.00    6.30   0.650   0.081   0.024   0.008   0.004   0.003
 1997 246    98  11.20  28.60  23.00  2.647  2.148  0.578  2.642  2.148  0.462  0.000  0.033  403.36  324.76  182.20  136.23    0.00    6.33   0.387   0.050   0.015   0.005   0.002   0.002
 1997 247    99  11.60  30.00  23.50  2.793  2.264  0.613  2.788  2.264  0.439  0.000  0.085  406.16  327.55  184.46  136.67    0.00    6.41   0.379   0.040   0.012   0.004   0.002   0.002
 1997 248   100  18.80  32.50  22.50  4.620  3.742  1.018  4.612  3.742  0.759  0.000  0.111  410.78  332.16  188.21  137.43    0.00    6.52   0.256   0.169   0.121   0.077   0.052   0.083
 1997 249   101  14.00  31.50  22.00  3.394  2.748  0.749  3.388  2.748  0.530  0.000  0.109  414.17  335.55  190.95  137.96    0.00    6.63   0.169   0.124   0.089   0.056   0.036   0.057
 1997 250   102  17.10  30.50  22.00  4.100  3.317  0.908  4.092  3.317  0.686  0.000  0.089  418.27  339.64  194.27  138.65    0.00    6.72   0.212   0.152   0.118   0.078   0.049   0.077
 1997 251   103  23.30  31.50  23.00  5.685  4.597  1.263  5.674  4.597  1.013  0.000  0.065  423.96  345.32  198.87  139.66    0.00    6.79   0.313   0.231   0.183   0.112   0.069   0.104
 1997 252   104  12.20  31.50  23.50  2.989  2.416  0.665  2.984  2.416  0.469  0.000  0.098  426.94  348.30  201.28  140.13    0.00    6.89   0.144   0.108   0.087   0.054   0.032   0.044
 1997 253   105  15.70  30.50  22.50  3.780  3.053  0.845  3.773  3.053  0.600  0.000  0.120  430.72  352.07  204.34  140.73    0.00    7.01   0.185   0.131   0.109   0.073   0.045   0.058
 1997 254   106  15.20  29.00  22.50  3.601  2.906  0.808  3.594  2.906  0.568  0.000  0.120  434.33  355.67  207.24  141.30    0.00    7.13   0.173   0.121   0.102   0.068   0.044   0.061
 1997 255   107  20.80  31.50  22.50  5.059  4.079  1.140  5.049  4.079  0.879  0.000  0.091  439.38  360.72  211.32  142.18    0.00    7.22   0.263   0.184   0.157   0.106   0.070   0.099
 1997 256   108  21.50  33.50  24.00  5.392  4.347  1.218  5.383  4.347  0.970  0.000  0.066  444.78  366.10  215.67  143.15    0.00    7.28   0.289   0.210   0.176   0.119   0.074   0.102
 1997 257   109  16.50  29.50  21.50  3.901  3.143  0.883  3.894  3.143  0.619  0.000  0.132  448.68  369.99  218.81  143.77    0.00    7.42   0.184   0.134   0.113   0.076   0.047   0.065
 1997 258   110  20.80  32.50  23.00  5.129  4.129  1.165  5.120  4.129  0.888  0.000  0.103  453.81  375.11  222.94  144.65    0.00    7.52   0.274   0.191   0.156   0.105   0.068   0.093
 1997 259   111  19.80  31.00  21.00  4.741  3.814  1.080  4.732  3.814  0.775  0.000  0.142  458.55  379.85  226.76  145.43    0.00    7.66   0.242   0.163   0.134   0.090   0.060   0.085
 1997 260   112  21.00  31.50  22.00  5.088  4.092  1.162  5.079  4.092  0.885  0.000  0.102  463.64  384.92  230.85  146.31    0.00    7.76   0.277   0.198   0.151   0.099   0.066   0.094
 1997 261   113   9.10  26.50  22.00  2.089  1.679  0.479  2.085  1.679  0.334  0.000  0.072  465.73  387.01  232.53  146.65    0.00    7.84   0.103   0.077   0.059   0.037   0.024   0.033
 1997 262   114  16.30  30.00  22.50  3.903  3.132  0.900  3.896  3.132  0.627  0.000  0.137  469.63  390.91  235.66  147.28    0.00    7.97   0.190   0.138   0.115   0.071   0.046   0.066
 1997 263   115  14.60  32.00  23.50  3.594  2.882  0.833  3.588  2.882  0.600  0.000  0.106  473.22  394.49  238.54  147.88    0.00    8.08   0.179   0.129   0.109   0.069   0.046   0.067
 1997 264   116  24.50  33.50  24.00  6.145  4.923  1.430  6.134  4.923  1.135  0.000  0.076  479.37  400.63  243.46  149.01    0.00    8.15   0.337   0.239   0.205   0.133   0.089   0.132
 1997 265   117  19.70  33.50  24.50  4.956  3.969  1.155  4.948  3.969  0.924  0.000  0.055  484.32  405.58  247.43  149.93    0.00    8.21   0.282   0.206   0.164   0.103   0.068   0.101
 1997 266   118   7.60  28.00  21.00  1.761  1.409  0.412  1.758  1.409  0.285  0.000  0.063  486.09  407.33  248.84  150.22    0.00    8.27   0.088   0.064   0.050   0.031   0.021   0.031
 1997 267   119  19.50  32.00  22.40  4.764  3.808  1.120  4.755  3.808  0.821  0.000  0.127  490.85  412.09  252.65  151.04    0.00    8.40   0.264   0.180   0.142   0.089   0.059   0.087
 1997 268   120   9.30  28.50  21.50  2.175  1.737  0.512  2.171  1.737  0.355  0.000  0.079  493.02  414.26  254.39  151.40    0.00    8.48   0.113   0.074   0.061   0.040   0.027   0.040
 1997 269   121  16.00  33.50  21.70  3.951  3.153  0.936  3.944  3.153  0.692  0.000  0.099  496.98  418.20  257.54  152.09    0.00    8.58   0.214   0.144   0.121   0.080   0.053   0.080
 1997 270   122  24.70  34.50  24.50  6.279  5.008  1.491  6.269  5.008  1.190  0.000  0.071  503.26  424.47  262.55  153.28    0.00    8.65   0.356   0.254   0.212   0.141   0.099   0.128

*DSSAT Cropping System Model Ver. 4.5.1.023 -Stub         OCT 13, 2014; 10:48:17
                                                                                
*RUN   3        : 97 DATE2 CHINESE          CRGRO045 GHNY9701    3              
 MODEL          : CRGRO045 - Peanut                                             
 EXPERIMENT     : GHNY9701 PN able [sltx] with oversized content [1 SALO], only 
 DATA PATH      :                                                               
 TREATMENT  3   : 97 DATE2 CHINESE          CRGRO045                            
  
!                                                                                                                                                Soil evaporation (mm/d) by soil depth (cm):
!                                                                                                                                                0-5    5-15   15-30   30-45   45-60   60-90
@YEAR DOY   DAS   SRAA  TMAXA  TMINA   EOAA   EOPA   EOSA   ETAA   EPAA   ESAA   EFAA   EMAA    EOAC    ETAC    EPAC    ESAC    EFAC    EMAC    ES1D    ES2D    ES3D    ES4D    ES5D    ES6D    
 1997 177     1  24.10  31.50  23.00  6.187  0.000  6.187  5.119  0.000  5.075  0.000  0.044    6.19    5.12    0.00    5.07    0.00    0.04   1.345   1.074   0.913   0.619   0.439   0.686
 1997 178     2  21.80  32.00  23.00  5.596  0.000  5.596  4.814  0.000  4.780  0.000  0.034   11.78    9.93    0.00    9.85    0.00    0.08   1.161   1.018   0.886   0.606   0.432   0.677
 1997 179     3  13.10  32.00  21.20  3.305  0.000  3.305  2.904  0.000  2.878  0.000  0.026   15.09   12.84    0.00   12.73    0.00    0.10   0.771   0.618   0.529   0.349   0.244   0.367
 1997 180     4  23.00  30.70  23.00  5.924  0.000  5.924  5.206  0.000  5.116  0.000  0.090   21.01   18.04    0.00   17.85    0.00    0.19   1.505   1.069   0.907   0.590   0.418   0.626
 1997 181     5  16.40  29.50  23.40  4.143  0.000  4.143  3.641  0.000  3.572  0.000  0.069   25.15   21.68    0.00   21.42    0.00    0.26   1.063   0.743   0.626   0.410   0.292   0.438
 1997 182     6  19.30  29.50  25.00  4.972  0.000  4.972  4.370  0.000  4.276  0.000  0.093   30.13   26.05    0.00   25.70    0.00    0.36   1.280   0.878   0.743   0.489   0.351   0.535
 1997 183     7   8.80  29.50  23.50  2.226  0.000  2.226  1.199  0.000  1.127  0.000  0.072   32.35   27.25    0.00   26.82    0.00    0.43   0.955   0.115   0.035   0.012   0.005   0.005
 1997 184     8   9.50  27.50  20.50  2.291  0.000  2.291  1.095  0.000  1.040  0.000  0.055   34.64   28.35    0.00   27.86    0.00    0.48   0.868   0.114   0.035   0.012   0.005   0.005
 1997 185     9   9.70  29.00  21.50  2.387  0.021  2.375  1.023  0.021  0.960  0.000  0.042   37.03   29.37    0.02   28.82    0.00    0.53   0.789   0.114   0.035   0.012   0.005   0.005
 1997 186    10  16.60  29.70  23.50  4.161  0.043  4.137  1.022  0.043  0.947  0.000  0.032   41.19   30.39    0.06   29.77    0.00    0.56   0.777   0.113   0.035   0.012   0.005   0.005
 1997 187    11  15.70  29.80  22.70  3.925  0.050  3.897  1.075  0.050  0.935  0.000  0.091   45.12   31.47    0.11   30.71    0.00    0.65   0.765   0.112   0.035   0.012   0.005   0.005
 1997 188    12  16.40  29.00  22.50  4.046  0.066  4.009  0.999  0.066  0.863  0.000  0.070   49.16   32.47    0.18   31.57    0.00    0.72   0.695   0.111   0.034   0.012   0.005   0.005
 1997 189    13  21.50  30.50  22.50  5.374  0.112  5.311  0.963  0.112  0.798  0.000  0.053   54.54   33.43    0.29   32.37    0.00    0.77   0.631   0.111   0.034   0.012   0.005   0.005
 1997 190    14  18.90  31.50  22.50  4.761  0.123  4.692  0.902  0.123  0.738  0.000  0.041   59.30   34.33    0.41   33.10    0.00    0.81   0.571   0.110   0.034   0.012   0.005   0.005
 1997 191    15  11.40  27.50  23.30  2.760  0.087  2.711  2.469  0.087  2.351  0.000  0.031   62.06   36.80    0.50   35.46    0.00    0.84   0.599   0.526   0.433   0.283   0.203   0.306
 1997 192    16  11.60  31.00  22.00  2.971  0.110  2.908  2.665  0.110  2.465  0.000  0.091   65.03   39.47    0.61   37.92    0.00    0.94   0.737   0.519   0.427   0.279   0.200   0.304
 1997 193    17  19.80  27.50  23.00  4.883  0.208  4.765  4.395  0.208  4.118  0.000  0.070   69.91   43.86    0.82   42.04    0.00    1.00   1.219   0.854   0.718   0.471   0.339   0.517
 1997 194    18  21.50  31.00  23.50  5.514  0.268  5.361  1.510  0.268  1.148  0.000  0.093   75.43   45.37    1.09   43.19    0.00    1.10   0.976   0.115   0.035   0.012   0.005   0.005
 1997 195    19  18.10  32.00  24.50  4.703  0.256  4.556  4.260  0.256  3.932  0.000  0.072   80.13   49.63    1.34   47.12    0.00    1.17   1.125   0.840   0.709   0.456   0.323   0.480
 1997 196    20  10.20  29.50  22.00  2.561  0.153  2.473  2.326  0.153  2.079  0.000  0.094   82.69   51.96    1.50   49.20    0.00    1.26   0.602   0.441   0.369   0.239   0.173   0.256
 1997 197    21   7.10  25.50  21.00  1.695  0.114  1.629  1.546  0.114  1.348  0.000  0.083   84.39   53.50    1.61   50.55    0.00    1.35   0.388   0.272   0.234   0.159   0.119   0.176
 1997 198    22  15.50  29.50  22.50  3.895  0.287  3.729  3.564  0.287  3.186  0.000  0.091   88.28   57.07    1.90   53.73    0.00    1.44   0.926   0.649   0.557   0.372   0.272   0.410
 1997 199    23  16.20  28.50  22.00  3.991  0.334  3.797  3.670  0.334  3.267  0.000  0.070   92.27   60.74    2.23   57.00    0.00    1.51   0.912   0.674   0.587   0.386   0.280   0.427
 1997 200    24  17.40  30.30  22.20  4.359  0.411  4.119  4.030  0.411  3.566  0.000  0.054   96.63   64.77    2.64   60.56    0.00    1.56   0.943   0.737   0.654   0.434   0.315   0.482
 1997 201    25  12.00  28.50  20.60  2.902  0.308  2.720  1.313  0.308  0.964  0.000  0.041   99.53   66.08    2.95   61.53    0.00    1.60   0.801   0.107   0.034   0.012   0.005   0.005
 1997 202    26   7.10  29.50  20.60  1.732  0.204  1.611  1.194  0.204  0.927  0.000  0.063  101.27   67.27    3.15   62.46    0.00    1.67   0.765   0.106   0.034   0.012   0.005   0.005
 1997 203    27  23.10  30.50  22.00  5.745  0.740  5.303  1.702  0.740  0.878  0.000  0.083  107.01   68.98    3.89   63.33    0.00    1.75   0.717   0.105   0.034   0.012   0.005   0.005
 1997 204    28  16.80  32.00  22.50  4.245  0.607  3.880  1.679  0.607  1.009  0.000  0.064  111.26   70.66    4.50   64.34    0.00    1.81   0.850   0.104   0.033   0.012   0.005   0.005
 1997 205    29  15.90  31.70  22.30  4.046  0.648  3.651  1.917  0.648  1.176  0.000  0.093  115.30   72.57    5.15   65.52    0.00    1.91   1.017   0.104   0.033   0.012   0.005   0.005
 1997 206    30  20.80  30.00  21.50  5.160  0.919  4.595  2.119  0.919  1.118  0.000  0.082  120.46   74.69    6.07   66.64    0.00    1.99   0.960   0.103   0.033   0.012   0.005   0.005
 1997 207    31  20.70  32.00  23.00  5.277  1.034  4.634  2.112  1.034  1.015  0.000  0.063  125.74   76.80    7.10   67.65    0.00    2.05   0.859   0.101   0.032   0.012   0.005   0.005
 1997 208    32  18.60  32.50  23.50  4.763  1.022  4.121  1.989  1.022  0.919  0.000  0.048  130.50   78.79    8.12   68.57    0.00    2.10   0.766   0.099   0.032   0.011   0.005   0.005
 1997 209    33  21.20  32.00  23.00  5.360  1.268  4.552  2.137  1.268  0.832  0.000  0.037  135.86   80.93    9.39   69.40    0.00    2.14   0.682   0.096   0.032   0.011   0.005   0.005
 1997 210    34  12.60  31.00  23.50  3.152  0.806  2.632  1.830  0.806  0.995  0.000  0.028  139.01   82.76   10.20   70.40    0.00    2.16   0.847   0.096   0.031   0.011   0.005   0.005
 1997 211    35   9.80  29.50  22.00  2.415  0.674  1.974  2.408  0.674  1.643  0.000  0.091  141.43   85.17   10.87   72.04    0.00    2.26   0.520   0.331   0.272   0.182   0.132   0.206
 1997 212    36   7.80  27.00  21.50  1.871  0.554  1.497  1.870  0.554  1.241  0.000  0.074  143.30   87.04   11.43   73.28    0.00    2.33   0.375   0.260   0.214   0.139   0.099   0.154
 1997 213    37  10.80  27.60  22.60  2.615  0.810  2.053  2.614  0.810  1.746  0.000  0.057  145.92   89.65   12.24   75.03    0.00    2.39   0.522   0.361   0.303   0.199   0.143   0.219
 1997 214    38  21.20  31.00  22.60  5.314  1.817  4.073  3.102  1.817  1.192  0.000  0.093  151.23   92.75   14.05   76.22    0.00    2.48   1.019   0.116   0.035   0.012   0.005   0.005
 1997 215    39  18.60  33.40  22.30  4.749  1.728  3.550  2.869  1.728  1.070  0.000  0.071  155.98   95.62   15.78   77.29    0.00    2.55   0.901   0.112   0.034   0.012   0.005   0.005
 1997 216    40  11.80  29.50  24.20  2.918  1.139  2.112  2.155  1.139  0.961  0.000  0.055  158.90   97.78   16.92   78.25    0.00    2.61   0.796   0.109   0.033   0.012   0.005   0.005
 1997 217    41  13.50  30.00  22.50  3.305  1.272  2.312  3.302  1.272  1.988  0.000  0.042  162.20  101.08   18.19   80.24    0.00    2.65   0.534   0.422   0.360   0.242   0.176   0.253
 1997 218    42   7.50  28.00  21.00  1.794  0.729  1.212  1.793  0.729  0.972  0.000  0.092  164.00  102.87   18.92   81.21    0.00    2.74   0.284   0.201   0.171   0.113   0.082   0.120
 1997 219    43  12.60  30.00  22.50  3.102  1.311  2.037  3.099  1.311  1.718  0.000  0.071  167.10  105.97   20.23   82.93    0.00    2.81   0.505   0.352   0.301   0.199   0.144   0.217
 1997 220    44  21.90  30.40  21.10  5.346  2.374  3.379  5.340  2.374  2.913  0.000  0.054  172.44  111.31   22.60   85.84    0.00    2.87   0.830   0.596   0.516   0.344   0.249   0.378
 1997 221    45  14.10  31.40  23.00  3.513  1.779  2.131  2.861  1.779  1.040  0.000  0.042  175.96  114.17   24.38   86.88    0.00    2.91   0.876   0.108   0.034   0.012   0.005   0.005
 1997 222    46  21.00  30.00  23.00  5.138  2.721  3.032  3.685  2.721  0.933  0.000  0.032  181.09  117.86   27.10   87.81    0.00    2.94   0.773   0.104   0.033   0.012   0.005   0.005
 1997 223    47  21.40  30.80  22.50  5.245  2.895  3.009  3.740  2.895  0.821  0.000  0.025  186.34  121.60   30.00   88.63    0.00    2.96   0.667   0.099   0.032   0.011   0.005   0.005
 1997 224    48  16.70  30.00  22.40  4.044  2.321  2.254  3.055  2.321  0.716  0.000  0.019  190.38  124.65   32.32   89.35    0.00    2.98   0.569   0.094   0.031   0.011   0.005   0.005
 1997 225    49  17.50  30.50  23.60  4.287  2.547  2.323  3.190  2.547  0.628  0.000  0.015  194.67  127.84   34.87   89.98    0.00    3.00   0.487   0.090   0.030   0.011   0.005   0.005
 1997 226    50  16.90  31.50  23.50  4.174  2.568  2.194  3.149  2.568  0.570  0.000  0.011  198.84  130.99   37.43   90.55    0.00    3.01   0.435   0.085   0.029   0.011   0.005   0.005
 1997 227    51   8.70  27.40  23.40  2.052  1.303  1.046  2.035  1.303  0.723  0.000  0.009  200.90  133.03   38.74   91.27    0.00    3.02   0.594   0.079   0.028   0.011   0.005   0.005
 1997 228    52  18.30  34.00  21.20  4.581  2.966  2.290  3.925  2.966  0.866  0.000  0.093  205.48  136.95   41.70   92.14    0.00    3.11   0.741   0.076   0.028   0.011   0.005   0.005
 1997 229    53  13.20  30.50  23.50  3.229  2.145  1.570  2.972  2.145  0.756  0.000  0.071  208.71  139.92   43.85   92.89    0.00    3.18   0.637   0.071   0.027   0.011   0.005   0.005
 1997 230    54  17.50  34.00  22.50  4.402  2.987  2.087  4.094  2.987  1.053  0.000  0.054  213.11  144.02   46.84   93.95    0.00    3.23   0.891   0.105   0.034   0.012   0.005   0.005
 1997 231    55  20.40  30.50  21.50  4.944  2.940  2.280  4.937  2.940  1.900  0.000  0.097  218.05  148.95   49.78   95.85    0.00    3.33   0.556   0.398   0.338   0.219   0.154   0.235
 1997 232    56  19.40  29.50  22.50  4.673  2.827  2.101  4.666  2.827  1.765  0.000  0.074  222.73  153.62   52.60   97.61    0.00    3.41   0.499   0.367   0.315   0.207   0.148   0.228
 1997 233    57  26.20  33.50  23.80  6.631  4.078  2.906  6.622  4.078  2.487  0.000  0.056  229.36  160.24   56.68  100.10    0.00    3.46   0.728   0.533   0.435   0.283   0.202   0.307
 1997 234    58  15.50  33.50  23.50  3.921  2.453  1.672  3.916  2.453  1.365  0.000  0.098  233.28  164.16   59.14  101.46    0.00    3.56   0.404   0.286   0.237   0.155   0.112   0.170
 1997 235    59   6.80  32.50  22.50  1.688  1.070  0.703  1.685  1.070  0.540  0.000  0.075  234.97  165.84   60.21  102.00    0.00    3.63   0.156   0.112   0.094   0.063   0.046   0.069
 1997 236    60  15.90  31.50  22.00  3.889  2.685  1.609  3.884  2.685  1.141  0.000  0.057  238.86  169.73   62.89  103.14    0.00    3.69   0.969   0.115   0.034   0.012   0.005   0.005
 1997 237    61  21.80  32.40  23.00  5.412  3.484  2.197  5.404  3.484  1.877  0.000  0.044  244.27  175.13   66.38  105.02    0.00    3.73   0.553   0.395   0.324   0.214   0.154   0.237
 1997 238    62  15.70  31.50  22.20  3.848  2.506  1.530  3.842  2.506  1.238  0.000  0.099  248.12  178.97   68.88  106.26    0.00    3.83   0.373   0.256   0.213   0.140   0.101   0.155
 1997 239    63  17.60  32.50  23.00  4.377  2.874  1.712  4.370  2.874  1.420  0.000  0.075  252.49  183.34   71.76  107.68    0.00    3.91   0.441   0.291   0.241   0.159   0.114   0.175
 1997 240    64   9.80  32.50  20.50  2.397  1.588  0.922  2.393  1.588  0.703  0.000  0.102  254.89  185.74   73.34  108.38    0.00    4.01   0.214   0.144   0.121   0.080   0.057   0.088
 1997 241    65  22.90  31.20  22.50  5.596  3.718  2.143  5.587  3.718  1.792  0.000  0.078  260.49  191.32   77.06  110.17    0.00    4.09   0.552   0.375   0.306   0.200   0.143   0.217
 1997 242    66  21.00  30.00  23.40  5.102  3.415  1.924  5.094  3.415  1.575  0.000  0.103  265.59  196.42   80.48  111.75    0.00    4.19   0.471   0.327   0.272   0.179   0.129   0.196
 1997 243    67  22.00  31.00  22.70  5.366  4.123  1.996  5.358  4.123  1.156  0.000  0.079  270.95  201.78   84.60  112.91    0.00    4.27   0.986   0.114   0.034   0.012   0.005   0.005
 1997 244    68  18.50  33.00  23.00  4.611  3.538  1.694  4.604  3.538  1.006  0.000  0.060  275.56  206.38   88.14  113.91    0.00    4.33   0.845   0.107   0.033   0.011   0.005   0.005
 1997 245    69  18.00  30.50  23.50  4.381  3.451  1.592  4.373  3.451  0.877  0.000  0.045  279.95  210.75   91.59  114.79    0.00    4.38   0.724   0.101   0.031   0.011   0.005   0.005
 1997 246    70  11.20  28.60  23.00  2.658  1.836  0.958  2.654  1.836  0.784  0.000  0.034  282.60  213.41   93.42  115.57    0.00    4.41   0.637   0.095   0.030   0.011   0.005   0.005
 1997 247    71  11.60  30.00  23.50  2.804  1.921  1.009  2.800  1.921  0.802  0.000  0.076  285.41  216.21   95.35  116.37    0.00    4.49   0.683   0.077   0.025   0.009   0.004   0.004
 1997 248    72  18.80  32.50  22.50  4.647  3.186  1.671  4.640  3.186  1.363  0.000  0.091  290.06  220.85   98.53  117.74    0.00    4.58   0.433   0.278   0.224   0.149   0.107   0.173
 1997 249    73  14.00  31.50  22.00  3.417  2.348  1.223  3.411  2.348  0.965  0.000  0.098  293.47  224.26  100.88  118.70    0.00    4.68   0.293   0.206   0.166   0.107   0.074   0.119
 1997 250    74  17.10  30.50  22.00  4.125  2.836  1.475  4.118  2.836  1.208  0.000  0.074  297.60  228.38  103.72  119.91    0.00    4.75   0.357   0.255   0.209   0.139   0.095   0.152
 1997 251    75  23.30  31.50  23.00  5.717  3.935  2.042  5.708  3.935  1.717  0.000  0.056  303.31  234.08  107.65  121.63    0.00    4.81   0.510   0.367   0.304   0.196   0.134   0.206
 1997 252    76  12.20  31.50  23.50  3.008  2.073  1.072  3.003  2.073  0.822  0.000  0.108  306.32  237.09  109.72  122.45    0.00    4.91   0.244   0.176   0.147   0.095   0.065   0.094
 1997 253    77  15.70  30.50  22.50  3.805  2.622  1.356  3.798  2.622  1.085  0.000  0.091  310.13  240.89  112.35  123.53    0.00    5.01   0.331   0.220   0.187   0.126   0.091   0.129
 1997 254    78  15.20  29.00  22.50  3.624  2.498  1.291  3.618  2.498  1.010  0.000  0.109  313.75  244.50  114.84  124.54    0.00    5.11   0.301   0.205   0.176   0.117   0.085   0.127
 1997 255    79  20.80  31.50  22.50  5.087  3.508  1.813  5.079  3.508  1.489  0.000  0.082  318.84  249.58  118.35  126.03    0.00    5.20   0.436   0.300   0.261   0.174   0.125   0.193
 1997 256    80  21.50  33.50  24.00  5.421  3.739  1.931  5.413  3.739  1.612  0.000  0.062  324.26  254.99  122.09  127.65    0.00    5.26   0.469   0.333   0.285   0.191   0.136   0.199
 1997 257    81  16.50  29.50  21.50  3.925  2.707  1.398  3.918  2.707  1.099  0.000  0.112  328.18  258.91  124.80  128.74    0.00    5.37   0.322   0.227   0.193   0.129   0.092   0.136
 1997 258    82  20.80  32.50  23.00  5.157  3.558  1.838  5.149  3.558  1.508  0.000  0.084  333.34  264.06  128.36  130.25    0.00    5.45   0.458   0.308   0.259   0.173   0.124   0.185
 1997 259    83  19.80  31.00  21.00  4.770  3.290  1.701  4.761  3.290  1.357  0.000  0.115  338.11  268.82  131.65  131.61    0.00    5.57   0.408   0.276   0.234   0.155   0.112   0.172
 1997 260    84  21.00  31.50  22.00  5.116  3.528  1.826  5.107  3.528  1.493  0.000  0.086  343.23  273.93  135.17  133.10    0.00    5.66   0.451   0.317   0.255   0.167   0.120   0.183
 1997 261    85   9.10  26.50  22.00  2.102  1.449  0.751  2.098  1.449  0.547  0.000  0.102  345.33  276.03  136.62  133.65    0.00    5.76   0.166   0.119   0.095   0.061   0.043   0.064
 1997 262    86  16.30  30.00  22.50  3.928  2.701  1.412  3.921  2.701  1.115  0.000  0.106  349.26  279.95  139.32  134.76    0.00    5.86   0.331   0.233   0.196   0.127   0.091   0.137
 1997 263    87  14.60  32.00  23.50  3.614  2.479  1.307  3.609  2.479  1.050  0.000  0.079  352.87  283.56  141.80  135.81    0.00    5.94   0.307   0.216   0.185   0.122   0.087   0.134
 1997 264    88  24.50  33.50  24.00  6.178  4.229  2.247  6.169  4.229  1.881  0.000  0.059  359.05  289.73  146.03  137.69    0.00    6.00   0.537   0.383   0.332   0.222   0.160   0.247
 1997 265    89  19.70  33.50  24.50  4.981  3.407  1.814  4.973  3.407  1.522  0.000  0.044  364.03  294.70  149.44  139.22    0.00    6.05   0.445   0.322   0.266   0.174   0.124   0.190
 1997 266    90   7.60  28.00  21.00  1.772  1.211  0.646  1.769  1.211  0.469  0.000  0.089  365.80  296.47  150.65  139.69    0.00    6.13   0.139   0.098   0.082   0.053   0.038   0.058
 1997 267    91  19.50  32.00  22.40  4.791  3.269  1.757  4.783  3.269  1.421  0.000  0.094  370.59  301.25  153.92  141.11    0.00    6.23   0.440   0.292   0.243   0.159   0.114   0.174
 1997 268    92   9.30  28.50  21.50  2.188  1.490  0.806  2.184  1.490  0.583  0.000  0.112  372.78  303.44  155.41  141.69    0.00    6.34   0.176   0.118   0.100   0.067   0.048   0.073
 1997 269    93  16.00  33.50  21.70  3.973  2.701  1.471  3.967  2.701  1.182  0.000  0.084  376.75  307.40  158.11  142.87    0.00    6.42   0.353   0.239   0.205   0.136   0.098   0.151
 1997 270    94  24.70  34.50  24.50  6.313  4.285  2.346  6.304  4.285  1.956  0.000  0.062  383.07  313.71  162.39  144.83    0.00    6.49   0.572   0.401   0.341   0.228   0.168   0.246
 1997 271    95  24.90  32.50  20.00  6.051  4.104  2.251  6.041  4.104  1.814  0.000  0.122  389.12  319.75  166.50  146.64    0.00    6.61   0.527   0.373   0.318   0.212   0.155   0.230
 1997 272    96  21.90  34.00  24.00  5.550  3.764  2.068  5.541  3.764  1.688  0.000  0.090  394.67  325.29  170.26  148.33    0.00    6.70   0.503   0.340   0.292   0.195   0.142   0.216
 1997 273    97  18.80  33.00  23.00  4.687  3.177  1.748  4.680  3.177  1.377  0.000  0.126  399.35  329.97  173.44  149.71    0.00    6.82   0.414   0.273   0.235   0.159   0.117   0.179
 1997 274    98  20.20  33.50  25.00  5.127  3.474  1.916  5.120  3.474  1.553  0.000  0.093  404.48  335.09  176.91  151.26    0.00    6.92   0.453   0.305   0.266   0.183   0.135   0.210
 1997 275    99  24.50  34.00  25.00  6.246  4.230  2.336  6.237  4.230  1.938  0.000  0.068  410.73  341.33  181.14  153.20    0.00    6.98   0.579   0.408   0.328   0.218   0.159   0.247
 1997 276   100  15.10  28.00  20.00  3.493  2.364  1.308  3.487  2.364  0.998  0.000  0.125  414.22  344.81  183.51  154.20    0.00    7.11   0.297   0.210   0.173   0.112   0.080   0.125
 1997 277   101  18.10  32.00  20.00  4.370  2.956  1.639  4.363  2.956  1.315  0.000  0.092  418.59  349.18  186.46  155.51    0.00    7.20   0.383   0.274   0.229   0.151   0.109   0.169

*DSSAT Cropping System Model Ver. 4.5.1.023 -Stub         OCT 13, 2014; 10:48:17
                                                                                
*RUN   4        : 97 DATE2 F-MIX            CRGRO045 GHNY9701    4              
 MODEL          : CRGRO045 - Peanut                                             
 EXPERIMENT     : GHNY9701 PN able [sltx] with oversized content [1 SALO], only 
 DATA PATH      :                                                               
 TREATMENT  4   : 97 DATE2 F-MIX            CRGRO045                            
  
!                                                                                                                                                Soil evaporation (mm/d) by soil depth (cm):
!                                                                                                                                                0-5    5-15   15-30   30-45   45-60   60-90
@YEAR DOY   DAS   SRAA  TMAXA  TMINA   EOAA   EOPA   EOSA   ETAA   EPAA   ESAA   EFAA   EMAA    EOAC    ETAC    EPAC    ESAC    EFAC    EMAC    ES1D    ES2D    ES3D    ES4D    ES5D    ES6D    
 1997 177     1  24.10  31.50  23.00  6.187  0.000  6.187  5.119  0.000  5.075  0.000  0.044    6.19    5.12    0.00    5.07    0.00    0.04   1.345   1.074   0.913   0.619   0.439   0.686
 1997 178     2  21.80  32.00  23.00  5.596  0.000  5.596  4.814  0.000  4.780  0.000  0.034   11.78    9.93    0.00    9.85    0.00    0.08   1.161   1.018   0.886   0.606   0.432   0.677
 1997 179     3  13.10  32.00  21.20  3.305  0.000  3.305  2.904  0.000  2.878  0.000  0.026   15.09   12.84    0.00   12.73    0.00    0.10   0.771   0.618   0.529   0.349   0.244   0.367
 1997 180     4  23.00  30.70  23.00  5.924  0.000  5.924  5.206  0.000  5.116  0.000  0.090   21.01   18.04    0.00   17.85    0.00    0.19   1.505   1.069   0.907   0.590   0.418   0.626
 1997 181     5  16.40  29.50  23.40  4.143  0.000  4.143  3.641  0.000  3.572  0.000  0.069   25.15   21.68    0.00   21.42    0.00    0.26   1.063   0.743   0.626   0.410   0.292   0.438
 1997 182     6  19.30  29.50  25.00  4.972  0.000  4.972  4.370  0.000  4.276  0.000  0.093   30.13   26.05    0.00   25.70    0.00    0.36   1.280   0.878   0.743   0.489   0.351   0.535
 1997 183     7   8.80  29.50  23.50  2.226  0.000  2.226  1.199  0.000  1.127  0.000  0.072   32.35   27.25    0.00   26.82    0.00    0.43   0.955   0.115   0.035   0.012   0.005   0.005
 1997 184     8   9.50  27.50  20.50  2.291  0.000  2.291  1.095  0.000  1.040  0.000  0.055   34.64   28.35    0.00   27.86    0.00    0.48   0.868   0.114   0.035   0.012   0.005   0.005
 1997 185     9   9.70  29.00  21.50  2.388  0.000  2.388  1.002  0.000  0.960  0.000  0.042   37.03   29.35    0.00   28.82    0.00    0.53   0.789   0.114   0.035   0.012   0.005   0.005
 1997 186    10  16.60  29.70  23.50  4.161  0.045  4.136  1.025  0.045  0.947  0.000  0.032   41.19   30.37    0.05   29.77    0.00    0.56   0.777   0.113   0.035   0.012   0.005   0.005
 1997 187    11  15.70  29.80  22.70  3.926  0.049  3.898  1.075  0.049  0.935  0.000  0.091   45.12   31.45    0.09   30.71    0.00    0.65   0.766   0.112   0.035   0.012   0.005   0.005
 1997 188    12  16.40  29.00  22.50  4.047  0.060  4.013  0.993  0.060  0.864  0.000  0.070   49.16   32.44    0.15   31.57    0.00    0.72   0.695   0.112   0.034   0.012   0.005   0.005
 1997 189    13  21.50  30.50  22.50  5.375  0.104  5.316  0.956  0.104  0.799  0.000  0.053   54.54   33.40    0.26   32.37    0.00    0.77   0.631   0.111   0.034   0.012   0.005   0.005
 1997 190    14  18.90  31.50  22.50  4.762  0.116  4.696  0.895  0.116  0.739  0.000  0.041   59.30   34.29    0.37   33.11    0.00    0.81   0.572   0.110   0.034   0.012   0.005   0.005
 1997 191    15  11.40  27.50  23.30  2.760  0.082  2.714  2.467  0.082  2.354  0.000  0.031   62.06   36.76    0.45   35.46    0.00    0.84   0.600   0.527   0.433   0.284   0.203   0.306
 1997 192    16  11.60  31.00  22.00  2.971  0.103  2.913  2.662  0.103  2.469  0.000  0.091   65.03   39.42    0.56   37.93    0.00    0.94   0.739   0.520   0.427   0.279   0.200   0.304
 1997 193    17  19.80  27.50  23.00  4.884  0.192  4.775  4.388  0.192  4.127  0.000  0.070   69.92   43.81    0.75   42.06    0.00    1.00   1.221   0.856   0.720   0.472   0.339   0.518
 1997 194    18  21.50  31.00  23.50  5.515  0.246  5.375  1.488  0.246  1.148  0.000  0.093   75.43   45.30    1.00   43.20    0.00    1.10   0.976   0.115   0.035   0.012   0.005   0.005
 1997 195    19  18.10  32.00  24.50  4.705  0.236  4.570  4.252  0.236  3.944  0.000  0.072   80.14   49.55    1.23   47.15    0.00    1.17   1.128   0.842   0.711   0.457   0.324   0.482
 1997 196    20  10.20  29.50  22.00  2.562  0.141  2.481  2.321  0.141  2.086  0.000  0.094   82.70   51.87    1.37   49.23    0.00    1.26   0.604   0.443   0.370   0.240   0.173   0.257
 1997 197    21   7.10  25.50  21.00  1.696  0.100  1.638  1.540  0.100  1.356  0.000  0.083   84.39   53.41    1.47   50.59    0.00    1.35   0.390   0.274   0.236   0.160   0.120   0.177
 1997 198    22  15.50  29.50  22.50  3.898  0.253  3.751  3.550  0.253  3.206  0.000  0.091   88.29   56.96    1.73   53.80    0.00    1.44   0.932   0.653   0.561   0.374   0.273   0.413
 1997 199    23  16.20  28.50  22.00  3.994  0.297  3.821  3.655  0.297  3.288  0.000  0.070   92.29   60.62    2.02   57.08    0.00    1.51   0.918   0.678   0.591   0.389   0.282   0.430
 1997 200    24  17.40  30.30  22.20  4.362  0.367  4.148  4.012  0.367  3.591  0.000  0.054   96.65   64.63    2.39   60.68    0.00    1.56   0.950   0.743   0.659   0.437   0.318   0.486
 1997 201    25  12.00  28.50  20.60  2.903  0.277  2.741  1.282  0.277  0.964  0.000  0.041   99.55   65.91    2.67   61.64    0.00    1.60   0.801   0.107   0.034   0.012   0.005   0.005
 1997 202    26   7.10  29.50  20.60  1.733  0.184  1.624  1.175  0.184  0.927  0.000  0.063  101.28   67.08    2.85   62.57    0.00    1.67   0.765   0.106   0.034   0.012   0.005   0.005
 1997 203    27  23.10  30.50  22.00  5.749  0.669  5.351  1.631  0.669  0.879  0.000  0.083  107.03   68.72    3.52   63.45    0.00    1.75   0.718   0.105   0.034   0.012   0.005   0.005
 1997 204    28  16.80  32.00  22.50  4.248  0.552  3.917  1.626  0.552  1.010  0.000  0.064  111.28   70.34    4.07   64.46    0.00    1.81   0.851   0.104   0.033   0.012   0.005   0.005
 1997 205    29  15.90  31.70  22.30  4.049  0.593  3.691  1.864  0.593  1.177  0.000  0.093  115.33   72.20    4.67   65.63    0.00    1.91   1.017   0.104   0.033   0.012   0.005   0.005
 1997 206    30  20.80  30.00  21.50  5.164  0.847  4.648  2.048  0.847  1.119  0.000  0.082  120.49   74.25    5.51   66.75    0.00    1.99   0.961   0.104   0.033   0.012   0.005   0.005
 1997 207    31  20.70  32.00  23.00  5.281  0.961  4.689  2.041  0.961  1.017  0.000  0.063  125.77   76.29    6.47   67.77    0.00    2.05   0.861   0.102   0.032   0.012   0.005   0.005
 1997 208    32  18.60  32.50  23.50  4.766  0.968  4.161  1.938  0.968  0.922  0.000  0.048  130.54   78.23    7.44   68.69    0.00    2.10   0.768   0.099   0.032   0.012   0.005   0.005
 1997 209    33  21.20  32.00  23.00  5.363  1.214  4.595  2.086  1.214  0.835  0.000  0.037  135.90   80.32    8.66   69.53    0.00    2.14   0.684   0.097   0.032   0.011   0.005   0.005
 1997 210    34  12.60  31.00  23.50  3.154  0.783  2.651  1.810  0.783  0.998  0.000  0.028  139.06   82.13    9.44   70.52    0.00    2.16   0.848   0.097   0.031   0.011   0.005   0.005
 1997 211    35   9.80  29.50  22.00  2.416  0.660  1.985  2.405  0.660  1.653  0.000  0.091  141.47   84.53   10.10   72.18    0.00    2.26   0.522   0.333   0.274   0.184   0.133   0.207
 1997 212    36   7.80  27.00  21.50  1.871  0.547  1.506  1.870  0.547  1.249  0.000  0.074  143.34   86.40   10.65   73.43    0.00    2.33   0.377   0.262   0.216   0.140   0.100   0.154
 1997 213    37  10.80  27.60  22.60  2.616  0.801  2.065  2.614  0.801  1.757  0.000  0.057  145.96   89.02   11.45   75.18    0.00    2.39   0.525   0.363   0.305   0.200   0.143   0.220
 1997 214    38  21.20  31.00  22.60  5.316  1.794  4.093  3.079  1.794  1.192  0.000  0.093  151.28   92.10   13.24   76.37    0.00    2.48   1.018   0.116   0.035   0.012   0.005   0.005
 1997 215    39  18.60  33.40  22.30  4.751  1.702  3.574  2.843  1.702  1.069  0.000  0.071  156.03   94.94   14.94   77.44    0.00    2.55   0.901   0.112   0.034   0.012   0.005   0.005
 1997 216    40  11.80  29.50  24.20  2.919  1.128  2.122  2.143  1.128  0.960  0.000  0.055  158.95   97.08   16.07   78.40    0.00    2.61   0.795   0.109   0.033   0.012   0.005   0.005
 1997 217    41  13.50  30.00  22.50  3.305  1.267  2.318  3.302  1.267  1.993  0.000  0.042  162.25  100.38   17.34   80.40    0.00    2.65   0.535   0.423   0.361   0.243   0.177   0.254
 1997 218    42   7.50  28.00  21.00  1.794  0.729  1.211  1.793  0.729  0.971  0.000  0.092  164.05  102.18   18.07   81.37    0.00    2.74   0.284   0.201   0.171   0.113   0.082   0.120
 1997 219    43  12.60  30.00  22.50  3.102  1.318  2.028  3.099  1.318  1.710  0.000  0.071  167.15  105.27   19.39   83.08    0.00    2.81   0.502   0.351   0.300   0.198   0.143   0.216
 1997 220    44  21.90  30.40  21.10  5.344  2.403  3.344  5.339  2.403  2.881  0.000  0.054  172.49  110.61   21.79   85.96    0.00    2.87   0.821   0.589   0.510   0.340   0.247   0.374
 1997 221    45  14.10  31.40  23.00  3.511  1.804  2.112  2.885  1.804  1.039  0.000  0.042  176.00  113.50   23.59   87.00    0.00    2.91   0.876   0.108   0.033   0.012   0.005   0.005
 1997 222    46  21.00  30.00  23.00  5.135  2.780  2.985  3.743  2.780  0.931  0.000  0.032  181.14  117.24   26.37   87.93    0.00    2.94   0.772   0.104   0.033   0.012   0.005   0.005
 1997 223    47  21.40  30.80  22.50  5.242  2.965  2.954  3.807  2.965  0.818  0.000  0.024  186.38  121.05   29.34   88.75    0.00    2.96   0.665   0.099   0.032   0.012   0.005   0.005
 1997 224    48  16.70  30.00  22.40  4.041  2.385  2.203  3.115  2.385  0.711  0.000  0.019  190.42  124.16   31.72   89.46    0.00    2.98   0.565   0.093   0.031   0.011   0.005   0.005
 1997 225    49  17.50  30.50  23.60  4.283  2.633  2.253  3.271  2.633  0.623  0.000  0.015  194.70  127.43   34.36   90.08    0.00    3.00   0.482   0.089   0.030   0.011   0.005   0.005
 1997 226    50  16.90  31.50  23.50  4.170  2.665  2.114  3.241  2.665  0.565  0.000  0.011  198.87  130.68   37.02   90.65    0.00    3.01   0.431   0.084   0.029   0.011   0.005   0.005
 1997 227    51   8.70  27.40  23.40  2.050  1.320  1.000  2.047  1.320  0.718  0.000  0.009  200.92  132.72   38.34   91.36    0.00    3.02   0.591   0.078   0.028   0.011   0.005   0.005
 1997 228    52  18.30  34.00  21.20  4.574  3.107  2.165  4.062  3.107  0.862  0.000  0.093  205.50  136.79   41.45   92.23    0.00    3.11   0.738   0.075   0.027   0.011   0.005   0.005
 1997 229    53  13.20  30.50  23.50  3.224  2.258  1.469  3.078  2.258  0.749  0.000  0.071  208.72  139.86   43.71   92.98    0.00    3.18   0.633   0.070   0.026   0.011   0.005   0.005
 1997 230    54  17.50  34.00  22.50  4.395  3.161  1.928  4.264  3.161  1.049  0.000  0.054  213.12  144.13   46.87   94.03    0.00    3.23   0.888   0.104   0.034   0.012   0.005   0.005
 1997 231    55  20.40  30.50  21.50  4.931  3.104  2.078  4.923  3.104  1.722  0.000  0.097  218.05  149.05   49.97   95.75    0.00    3.33   0.504   0.361   0.306   0.198   0.140   0.213
 1997 232    56  19.40  29.50  22.50  4.661  2.998  1.892  4.654  2.998  1.581  0.000  0.074  222.71  153.70   52.97   97.33    0.00    3.41   0.448   0.328   0.282   0.187   0.133   0.204
 1997 233    57  26.20  33.50  23.80  6.614  4.346  2.582  6.604  4.346  2.202  0.000  0.057  229.32  160.31   57.32   99.53    0.00    3.46   0.646   0.471   0.384   0.252   0.178   0.271
 1997 234    58  15.50  33.50  23.50  3.909  2.621  1.465  3.903  2.621  1.183  0.000  0.099  233.23  164.21   59.94  100.71    0.00    3.56   0.351   0.248   0.205   0.135   0.096   0.147
 1997 235    59   6.80  32.50  22.50  1.683  1.149  0.607  1.680  1.149  0.456  0.000  0.075  234.91  165.89   61.09  101.17    0.00    3.64   0.132   0.095   0.080   0.053   0.038   0.059
 1997 236    60  15.90  31.50  22.00  3.877  2.671  1.373  3.871  2.671  1.143  0.000  0.057  238.79  169.76   63.76  102.31    0.00    3.69   0.972   0.115   0.034   0.012   0.005   0.005
 1997 237    61  21.80  32.40  23.00  5.396  3.774  1.846  5.387  3.774  1.569  0.000  0.044  244.19  175.15   67.53  103.88    0.00    3.74   0.464   0.330   0.270   0.179   0.129   0.198
 1997 238    62  15.70  31.50  22.20  3.833  2.723  1.263  3.827  2.723  1.004  0.000  0.099  248.02  178.98   70.25  104.89    0.00    3.84   0.303   0.207   0.173   0.114   0.082   0.125
 1997 239    63  17.60  32.50  23.00  4.361  3.138  1.392  4.354  3.138  1.139  0.000  0.076  252.38  183.33   73.39  106.02    0.00    3.91   0.354   0.233   0.193   0.127   0.092   0.140
 1997 240    64   9.80  32.50  20.50  2.387  1.740  0.737  2.383  1.740  0.549  0.000  0.094  254.77  185.71   75.13  106.57    0.00    4.01   0.167   0.112   0.094   0.062   0.045   0.068
 1997 241    65  22.90  31.20  22.50  5.574  4.093  1.688  5.564  4.093  1.391  0.000  0.080  260.34  191.28   79.23  107.97    0.00    4.09   0.429   0.291   0.237   0.155   0.111   0.168
 1997 242    66  21.00  30.00  23.40  5.079  3.772  1.489  5.071  3.772  1.197  0.000  0.102  265.42  196.35   83.00  109.16    0.00    4.19   0.359   0.248   0.207   0.136   0.098   0.149
 1997 243    67  22.00  31.00  22.70  5.345  4.095  1.518  5.336  4.095  1.164  0.000  0.077  270.77  201.68   87.09  110.33    0.00    4.27   0.993   0.114   0.034   0.012   0.005   0.005
 1997 244    68  18.50  33.00  23.00  4.595  3.515  1.267  4.587  3.515  1.013  0.000  0.058  275.36  206.27   90.61  111.34    0.00    4.32   0.852   0.107   0.032   0.011   0.005   0.005
 1997 245    69  18.00  30.50  23.50  4.367  3.430  1.170  4.359  3.430  0.884  0.000  0.044  279.73  210.63   94.04  112.22    0.00    4.37   0.731   0.100   0.031   0.011   0.005   0.005
 1997 246    70  11.20  28.60  23.00  2.651  2.044  0.692  2.646  2.044  0.568  0.000  0.034  282.38  213.28   96.08  112.79    0.00    4.40   0.463   0.068   0.022   0.008   0.004   0.004
 1997 247    71  11.60  30.00  23.50  2.796  2.166  0.719  2.791  2.166  0.549  0.000  0.076  285.18  216.07   98.25  113.34    0.00    4.48   0.469   0.052   0.017   0.006   0.003   0.003
 1997 248    72  18.80  32.50  22.50  4.628  3.600  1.173  4.619  3.600  0.928  0.000  0.092  289.80  220.69  101.85  114.27    0.00    4.57   0.297   0.189   0.151   0.101   0.072   0.117
 1997 249    73  14.00  31.50  22.00  3.400  2.661  0.843  3.393  2.661  0.633  0.000  0.099  293.20  224.08  104.51  114.90    0.00    4.67   0.193   0.135   0.109   0.070   0.048   0.078
 1997 250    74  17.10  30.50  22.00  4.106  3.227  1.003  4.098  3.227  0.796  0.000  0.075  297.31  228.18  107.74  115.70    0.00    4.74   0.237   0.167   0.137   0.092   0.063   0.100
 1997 251    75  23.30  31.50  23.00  5.692  4.496  1.367  5.681  4.496  1.129  0.000  0.056  303.00  233.86  112.23  116.83    0.00    4.80   0.337   0.241   0.199   0.129   0.088   0.135
[...]
 1997 220    16  21.90  30.40  21.10  5.488  0.203  5.373  4.924  0.203  4.668  0.000  0.054   61.89   29.51    0.60   27.93    0.00    0.99   1.310   0.966   0.836   0.555   0.396   0.604
 1997 221    17  14.10  31.40  23.00  3.600  0.147  3.516  1.197  0.147  1.009  0.000  0.041   65.49   30.71    0.75   28.94    0.00    1.03   0.842   0.110   0.034   0.012   0.005   0.005
 1997 222    18  21.00  30.00  23.00  5.263  0.246  5.123  1.206  0.246  0.929  0.000  0.032   70.75   31.92    0.99   29.86    0.00    1.06   0.763   0.109   0.034   0.012   0.005   0.005
 1997 223    19  21.40  30.80  22.50  5.372  0.280  5.212  1.158  0.280  0.854  0.000  0.024   76.13   33.08    1.27   30.72    0.00    1.08   0.689   0.108   0.034   0.012   0.005   0.005
 1997 224    20  16.70  30.00  22.40  4.141  0.235  4.006  1.039  0.235  0.785  0.000  0.019   80.27   34.11    1.51   31.50    0.00    1.10   0.622   0.107   0.034   0.012   0.005   0.005
 1997 225    21  17.50  30.50  23.60  4.388  0.268  4.234  1.006  0.268  0.724  0.000  0.014   84.65   35.12    1.78   32.23    0.00    1.12   0.562   0.106   0.034   0.012   0.005   0.005
 1997 226    22  16.90  31.50  23.50  4.268  0.299  4.095  0.978  0.299  0.667  0.000  0.011   88.92   36.10    2.08   32.89    0.00    1.13   0.507   0.105   0.033   0.012   0.005   0.005
 1997 227    23   8.70  27.40  23.40  2.096  0.168  1.998  0.997  0.168  0.820  0.000  0.008   91.02   37.09    2.24   33.72    0.00    1.14   0.661   0.103   0.033   0.012   0.005   0.005
 1997 228    24  18.30  34.00  21.20  4.721  0.422  4.474  1.472  0.422  0.961  0.000  0.089   95.74   38.57    2.67   34.68    0.00    1.23   0.803   0.102   0.033   0.012   0.005   0.005
 1997 229    25  13.20  30.50  23.50  3.323  0.337  3.125  1.285  0.337  0.880  0.000  0.068   99.06   39.85    3.00   35.56    0.00    1.29   0.723   0.101   0.033   0.012   0.005   0.005
 1997 230    26  17.50  34.00  22.50  4.522  0.517  4.216  4.222  0.517  3.652  0.000  0.052  103.59   44.07    3.52   39.21    0.00    1.35   0.965   0.764   0.668   0.452   0.332   0.472
 1997 231    27  20.40  30.50  21.50  5.137  0.664  4.740  4.829  0.664  4.072  0.000  0.092  108.72   48.90    4.18   43.28    0.00    1.44   1.184   0.844   0.717   0.475   0.348   0.505
 1997 232    28  19.40  29.50  22.50  4.830  0.697  4.409  4.572  0.697  3.804  0.000  0.071  113.55   53.47    4.88   47.08    0.00    1.51   1.048   0.799   0.681   0.451   0.327   0.497
 1997 233    29  26.20  33.50  23.80  6.831  1.101  6.161  6.514  1.101  5.359  0.000  0.054  120.38   59.99    5.98   52.44    0.00    1.56   1.533   1.158   0.943   0.616   0.443   0.666
 1997 234    30  15.50  33.50  23.50  4.063  0.717  3.622  3.900  0.717  3.090  0.000  0.093  124.45   63.89    6.70   55.53    0.00    1.66   0.905   0.652   0.540   0.353   0.254   0.387
 1997 235    31   6.80  32.50  22.50  1.742  0.344  1.529  1.687  0.344  1.272  0.000  0.071  126.19   65.57    7.04   56.80    0.00    1.73   0.355   0.269   0.226   0.150   0.108   0.165
 1997 236    32  15.90  31.50  22.00  4.008  0.858  3.469  2.007  0.858  1.094  0.000  0.054  130.20   67.58    7.90   57.90    0.00    1.78   0.921   0.116   0.035   0.012   0.005   0.005
 1997 237    33  21.80  32.40  23.00  5.562  1.313  4.726  5.464  1.313  4.110  0.000  0.042  135.76   73.05    9.21   62.01    0.00    1.82   1.188   0.875   0.719   0.472   0.339   0.518
 1997 238    34  15.70  31.50  22.20  3.977  1.023  3.317  3.937  1.023  2.822  0.000  0.092  139.74   76.98   10.24   64.83    0.00    1.92   0.839   0.583   0.492   0.322   0.231   0.354
 1997 239    35  17.60  32.50  23.00  4.504  1.271  3.670  4.495  1.271  3.154  0.000  0.070  144.24   81.48   11.51   67.98    0.00    1.99   0.964   0.647   0.542   0.356   0.255   0.391
 1997 240    36   9.80  32.50  20.50  2.472  0.745  1.964  2.471  0.745  1.632  0.000  0.094  146.71   83.95   12.25   69.62    0.00    2.08   0.491   0.334   0.282   0.186   0.134   0.205
 1997 241    37  22.90  31.20  22.50  5.752  1.825  4.466  5.748  1.825  3.851  0.000  0.072  152.46   89.70   14.08   73.47    0.00    2.15   1.176   0.808   0.660   0.431   0.308   0.469
 1997 242    38  21.00  30.00  23.40  5.247  1.741  3.988  5.244  1.741  3.409  0.000  0.094  157.71   94.94   15.82   76.88    0.00    2.25   1.012   0.710   0.592   0.389   0.281   0.426
 1997 243    39  22.00  31.00  22.70  5.496  2.071  4.044  3.257  2.071  1.114  0.000  0.072  163.21   98.20   17.89   77.99    0.00    2.32   0.943   0.114   0.034   0.012   0.005   0.005
 1997 244    40  18.50  33.00  23.00  4.708  1.886  3.363  2.936  1.886  0.995  0.000  0.055  167.92  101.13   19.77   78.98    0.00    2.37   0.829   0.110   0.033   0.012   0.005   0.005
 1997 245    41  18.00  30.50  23.50  4.460  1.919  3.058  2.851  1.919  0.889  0.000  0.042  172.38  103.98   21.69   79.87    0.00    2.42   0.728   0.106   0.033   0.012   0.005   0.005
 1997 246    42  11.20  28.60  23.00  2.700  1.241  1.771  2.090  1.241  0.816  0.000  0.033  175.08  106.07   22.94   80.69    0.00    2.45   0.659   0.103   0.032   0.011   0.005   0.005
 1997 247    43  11.60  30.00  23.50  2.844  1.382  1.786  2.443  1.382  0.990  0.000  0.070  177.92  108.52   24.32   81.68    0.00    2.52   0.835   0.101   0.032   0.011   0.005   0.005
 1997 248    44  18.80  32.50  22.50  4.729  2.226  2.846  4.724  2.226  2.417  0.000  0.081  182.65  113.24   26.54   84.10    0.00    2.60   0.745   0.504   0.406   0.270   0.194   0.299
 1997 249    45  14.00  31.50  22.00  3.478  1.700  2.021  3.474  1.700  1.687  0.000  0.087  186.13  116.71   28.24   85.78    0.00    2.69   0.503   0.357   0.292   0.191   0.136   0.208
 1997 250    46  17.10  30.50  22.00  4.186  2.117  2.352  4.181  2.117  1.997  0.000  0.067  190.31  120.90   30.36   87.78    0.00    2.75   0.577   0.417   0.350   0.231   0.166   0.256
 1997 251    47  23.30  31.50  23.00  5.788  3.022  3.144  5.782  3.022  2.708  0.000  0.051  196.10  126.68   33.38   90.49    0.00    2.81   0.790   0.575   0.484   0.311   0.219   0.329
 1997 252    48  12.20  31.50  23.50  3.047  1.643  1.596  3.043  1.643  1.306  0.000  0.094  199.15  129.72   35.03   91.80    0.00    2.90   0.385   0.280   0.234   0.151   0.105   0.151
 1997 253    49  15.70  30.50  22.50  3.850  2.137  1.947  3.845  2.137  1.627  0.000  0.081  203.00  133.56   37.16   93.42    0.00    2.98   0.495   0.330   0.280   0.189   0.137   0.195
 1997 254    50  15.20  29.00  22.50  3.661  2.091  1.785  3.656  2.091  1.470  0.000  0.095  206.66  137.22   39.25   94.89    0.00    3.07   0.437   0.298   0.256   0.171   0.123   0.185
 1997 255    51  20.80  31.50  22.50  5.128  3.010  2.409  5.121  3.010  2.039  0.000  0.072  211.79  142.34   42.26   96.93    0.00    3.15   0.591   0.412   0.359   0.238   0.172   0.265
 1997 256    52  21.50  33.50  24.00  5.455  3.290  2.464  5.448  3.290  2.103  0.000  0.056  217.24  147.79   45.55   99.03    0.00    3.20   0.607   0.435   0.373   0.250   0.177   0.260
 1997 257    53  16.50  29.50  21.50  3.949  2.446  1.709  3.943  2.446  1.400  0.000  0.097  221.19  151.73   48.00  100.43    0.00    3.30   0.409   0.290   0.247   0.164   0.117   0.173
 1997 258    54  20.80  32.50  23.00  5.182  3.284  2.159  5.174  3.284  1.816  0.000  0.074  226.37  156.91   51.28  102.25    0.00    3.37   0.550   0.372   0.313   0.208   0.149   0.223
 1997 259    55  19.80  31.00  21.00  4.789  3.106  1.914  4.781  3.106  1.576  0.000  0.099  231.16  161.69   54.39  103.82    0.00    3.47   0.474   0.321   0.272   0.180   0.130   0.200
 1997 260    56  21.00  31.50  22.00  5.130  3.396  1.973  5.122  3.396  1.651  0.000  0.075  236.29  166.81   57.79  105.48    0.00    3.55   0.498   0.350   0.282   0.185   0.133   0.202
 1997 261    57   9.10  26.50  22.00  2.106  1.422  0.779  2.103  1.422  0.583  0.000  0.098  238.40  168.91   59.21  106.06    0.00    3.65   0.176   0.127   0.101   0.065   0.046   0.068
 1997 262    58  16.30  30.00  22.50  3.934  2.687  1.418  3.928  2.687  1.151  0.000  0.089  242.33  172.84   61.90  107.21    0.00    3.73   0.342   0.240   0.202   0.132   0.094   0.141
 1997 263    59  14.60  32.00  23.50  3.617  2.512  1.257  3.611  2.512  1.031  0.000  0.068  245.95  176.45   64.41  108.24    0.00    3.80   0.301   0.212   0.181   0.119   0.086   0.132
 1997 264    60  24.50  33.50  24.00  6.179  4.357  2.074  6.169  4.357  1.760  0.000  0.052  252.13  182.62   68.77  110.00    0.00    3.85   0.501   0.359   0.311   0.208   0.150   0.232
 1997 265    61  19.70  33.50  24.50  4.979  3.566  1.609  4.971  3.566  1.366  0.000  0.040  257.11  187.59   72.33  111.37    0.00    3.89   0.399   0.289   0.239   0.156   0.112   0.170
 1997 266    62   7.60  28.00  21.00  1.770  1.286  0.551  1.766  1.286  0.411  0.000  0.070  258.88  189.36   73.62  111.78    0.00    3.96   0.122   0.086   0.072   0.047   0.033   0.051
 1997 267    63  19.50  32.00  22.40  4.784  3.497  1.466  4.776  3.497  1.197  0.000  0.083  263.66  194.13   77.11  112.97    0.00    4.05   0.371   0.246   0.205   0.134   0.096   0.146
 1997 268    64   9.30  28.50  21.50  2.184  1.615  0.648  2.180  1.615  0.482  0.000  0.083  265.85  196.31   78.73  113.46    0.00    4.13   0.146   0.098   0.083   0.055   0.040   0.061
 1997 269    65  16.00  33.50  21.70  3.965  2.950  1.157  3.958  2.950  0.934  0.000  0.075  269.81  200.27   81.68  114.39    0.00    4.20   0.279   0.188   0.162   0.108   0.078   0.119
 1997 270    66  24.70  34.50  24.50  6.299  4.731  1.788  6.289  4.731  1.501  0.000  0.057  276.11  206.56   86.41  115.89    0.00    4.26   0.440   0.308   0.261   0.175   0.129   0.189
 1997 271    67  24.90  32.50  20.00  6.032  4.576  1.659  6.021  4.576  1.341  0.000  0.104  282.14  212.58   90.99  117.23    0.00    4.36   0.390   0.276   0.235   0.156   0.115   0.170
 1997 272    68  21.90  34.00  24.00  5.534  4.233  1.484  5.525  4.233  1.213  0.000  0.079  287.68  218.11   95.22  118.45    0.00    4.44   0.363   0.244   0.209   0.140   0.102   0.155
 1997 273    69  18.80  33.00  23.00  4.671  3.604  1.217  4.663  3.604  0.953  0.000  0.107  292.35  222.77   98.82  119.40    0.00    4.55   0.288   0.189   0.162   0.110   0.081   0.123
 1997 274    70  20.20  33.50  25.00  5.111  3.972  1.299  5.102  3.972  1.049  0.000  0.081  297.46  227.87  102.79  120.45    0.00    4.63   0.308   0.206   0.179   0.124   0.091   0.141
 1997 275    71  24.50  34.00  25.00  6.226  4.876  1.542  6.216  4.876  1.279  0.000  0.061  303.68  234.09  107.67  121.73    0.00    4.69   0.385   0.269   0.216   0.144   0.105   0.161
 1997 276    72  15.10  28.00  20.00  3.478  2.742  0.840  3.471  2.742  0.622  0.000  0.108  307.16  237.56  110.41  122.35    0.00    4.80   0.186   0.131   0.108   0.070   0.050   0.077
 1997 277    73  18.10  32.00  20.00  4.352  3.445  1.036  4.344  3.445  0.818  0.000  0.081  311.51  241.90  113.86  123.17    0.00    4.88   0.240   0.170   0.142   0.094   0.068   0.105
 1997 278    74   8.80  31.50  20.00  2.104  1.673  0.492  2.100  1.673  0.366  0.000  0.061  313.62  244.00  115.53  123.53    0.00    4.94   0.107   0.077   0.064   0.043   0.031   0.045
 1997 279    75  22.20  33.00  21.30  5.447  4.336  1.270  5.437  4.336  0.991  0.000  0.110  319.07  249.44  119.87  124.52    0.00    5.05   0.294   0.210   0.174   0.116   0.083   0.115
 1997 280    76  21.20  30.70  20.60  5.049  4.036  1.157  5.039  4.036  0.909  0.000  0.094  324.11  254.48  123.90  125.43    0.00    5.15   0.267   0.188   0.159   0.106   0.076   0.113
 1997 281    77   8.70  32.00  23.50  2.143  1.720  0.484  2.139  1.720  0.354  0.000  0.065  326.26  256.62  125.62  125.79    0.00    5.21   0.104   0.072   0.062   0.041   0.030   0.045
 1997 282    78  17.70  32.00  25.40  4.418  3.546  0.998  4.410  3.546  0.748  0.000  0.115  330.68  261.03  129.17  126.53    0.00    5.33   0.223   0.150   0.130   0.086   0.063   0.096
 1997 283    79  18.60  33.00  25.20  4.682  3.772  1.043  4.674  3.772  0.816  0.000  0.086  335.36  265.70  132.94  127.35    0.00    5.41   0.238   0.161   0.142   0.096   0.070   0.109
 1997 284    80  19.80  32.80  25.20  4.972  4.019  1.094  4.964  4.019  0.880  0.000  0.065  340.33  270.67  136.96  128.23    0.00    5.48   0.250   0.171   0.154   0.106   0.078   0.122
 1997 285    81  17.60  33.70  24.00  4.423  3.586  0.961  4.415  3.586  0.781  0.000  0.049  344.75  275.08  140.54  129.01    0.00    5.53   0.665   0.075   0.024   0.009   0.004   0.004
 1997 286    82  20.40  33.80  23.40  5.109  4.190  1.099  5.100  4.190  0.873  0.000  0.036  349.86  280.18  144.73  129.88    0.00    5.56   0.734   0.088   0.029   0.011   0.005   0.005
 1997 287    83  12.50  32.00  24.20  3.089  2.516  0.658  3.083  2.516  0.540  0.000  0.027  352.95  283.26  147.25  130.42    0.00    5.59   0.447   0.058   0.020   0.008   0.004   0.004
 1997 288    84  21.60  31.40  21.50  5.203  4.240  1.107  5.193  4.240  0.901  0.000  0.053  358.15  288.46  151.49  131.32    0.00    5.64   0.772   0.087   0.025   0.009   0.004   0.004
 1997 289    85  24.30  33.20  22.20  6.004  4.900  1.269  5.993  4.900  0.985  0.000  0.108  364.16  294.45  156.39  132.31    0.00    5.75   0.313   0.212   0.148   0.103   0.078   0.130
 1997 290    86  12.10  33.00  23.40  3.007  2.458  0.631  3.001  2.458  0.463  0.000  0.080  367.16  297.45  158.85  132.77    0.00    5.83   0.399   0.045   0.011   0.004   0.002   0.002
 1997 291    87  12.70  35.40  23.20  3.288  2.687  0.692  3.282  2.687  0.535  0.000  0.060  370.45  300.73  161.53  133.31    0.00    5.89   0.168   0.119   0.086   0.054   0.040   0.069
 1997 292    88  12.80  30.40  21.40  3.053  2.494  0.644  3.047  2.494  0.462  0.000  0.091  373.50  303.78  164.03  133.77    0.00    5.98   0.143   0.101   0.080   0.048   0.033   0.057
 1997 293    89  12.50  33.00  23.00  3.098  2.530  0.655  3.092  2.530  0.470  0.000  0.093  376.60  306.87  166.56  134.24    0.00    6.07   0.143   0.099   0.082   0.052   0.034   0.059
 1997 294    90  12.00  33.40  23.00  2.986  2.437  0.634  2.981  2.437  0.468  0.000  0.075  379.59  309.85  169.00  134.71    0.00    6.15   0.401   0.046   0.014   0.004   0.002   0.002
 1997 295    91  20.60  33.00  23.90  5.136  4.189  1.094  5.126  4.189  0.882  0.000  0.056  384.72  314.98  173.18  135.59    0.00    6.21   0.750   0.088   0.027   0.009   0.004   0.004
 1997 296    92  24.40  33.00  21.80  5.993  4.978  1.275  5.982  4.978  0.963  0.000  0.041  390.72  320.96  178.16  136.55    0.00    6.25   0.808   0.103   0.031   0.011   0.004   0.005
 1997 297    93  20.60  34.00  23.60  5.174  4.223  1.099  5.164  4.223  0.911  0.000  0.030  395.89  326.13  182.39  137.46    0.00    6.28   0.782   0.087   0.025   0.009   0.004   0.004
 1997 298    94  19.80  34.00  22.00  4.924  4.021  1.045  4.915  4.021  0.768  0.000  0.126  400.82  331.04  186.41  138.23    0.00    6.40   0.251   0.163   0.118   0.081   0.054   0.101
 1997 299    95  23.00  35.00  22.00  5.777  4.718  1.227  5.767  4.718  0.956  0.000  0.093  406.59  336.81  191.13  139.19    0.00    6.50   0.322   0.204   0.143   0.097   0.066   0.124
 1997 300    96  19.70  32.50  22.20  4.831  3.946  1.025  4.822  3.946  0.741  0.000  0.135  411.42  341.63  195.07  139.93    0.00    6.63   0.246   0.163   0.110   0.074   0.051   0.097
 1997 301    97  22.50  33.00  24.00  5.613  4.585  1.192  5.603  4.585  0.920  0.000  0.098  417.04  347.23  199.66  140.85    0.00    6.73   0.312   0.202   0.132   0.090   0.063   0.121
 1997 302    98  22.10  33.50  23.70  5.531  4.518  1.176  5.521  4.518  0.866  0.000  0.137  422.57  352.75  204.17  141.71    0.00    6.87   0.294   0.190   0.121   0.084   0.060   0.117
 1997 303    99  21.50  33.50  22.50  5.335  4.357  1.135  5.325  4.357  0.868  0.000  0.100  427.90  358.08  208.53  142.58    0.00    6.97   0.756   0.081   0.018   0.007   0.003   0.004
 1997 304   100  15.50  32.70  22.50  3.813  3.113  0.813  3.806  3.113  0.620  0.000  0.073  431.72  361.89  211.64  143.20    0.00    7.04   0.534   0.061   0.014   0.005   0.003   0.003
 1997 305   101  22.60  31.70  23.00  5.520  4.587  1.181  5.509  4.587  0.869  0.000  0.053  437.24  367.40  216.23  144.07    0.00    7.09   0.743   0.089   0.020   0.008   0.004   0.005
 1997 306   102  15.40  34.00  24.00  3.877  3.162  0.832  3.870  3.162  0.669  0.000  0.039  441.11  371.26  219.39  144.74    0.00    7.13   0.562   0.074   0.017   0.007   0.004   0.004
 1997 307   103  23.80  31.70  24.20  5.857  5.194  1.261  5.847  5.194  0.625  0.000  0.028  446.97  377.11  224.59  145.36    0.00    7.16   0.516   0.075   0.018   0.008   0.004   0.005
 1997 308   104  23.20  34.50  24.00  5.866  5.308  1.266  5.856  5.308  0.528  0.000  0.021  452.84  382.97  229.90  145.89    0.00    7.18   0.433   0.064   0.015   0.007   0.004   0.005
 1997 309   105  20.00  34.00  24.50  5.048  4.558  1.092  5.039  4.558  0.465  0.000  0.015  457.88  388.01  234.45  146.36    0.00    7.20   0.386   0.051   0.013   0.007   0.004   0.005
 1997 310   106  23.20  35.50  23.00  6.018  5.515  1.309  2.243  1.821  0.411  0.000  0.011  463.90  390.25  236.27  146.77    0.00    7.21   0.346   0.036   0.012   0.007   0.004   0.005
 1997 311   107  22.90  35.00  23.00  5.778  5.291  1.263  1.874  1.490  0.375  0.000  0.008  469.68  392.12  237.76  147.14    0.00    7.21   0.313   0.035   0.012   0.007   0.004   0.005
 1997 312   108  19.60  35.00  25.50  5.029  4.603  1.103  1.623  1.257  0.360  0.000  0.006  474.71  393.75  239.02  147.50    0.00    7.22   0.300   0.034   0.011   0.007   0.004   0.005
 1997 313   109  21.20  34.50  25.00  5.394  4.935  1.186  1.468  1.069  0.347  0.000  0.052  480.10  395.21  240.09  147.85    0.00    7.27   0.288   0.033   0.011   0.007   0.004   0.005
 1997 314   110  22.60  35.00  23.70  5.729  5.239  1.262  1.287  0.930  0.320  0.000  0.037  485.83  396.50  241.02  148.17    0.00    7.31   0.262   0.032   0.011   0.007   0.004   0.005
 1997 315   111  22.40  34.80  22.50  5.620  5.123  1.263  1.144  0.822  0.295  0.000  0.027  491.45  397.65  241.84  148.47    0.00    7.34   0.238   0.032   0.011   0.006   0.004   0.005
 1997 316   112  21.40  35.50  23.00  5.548  5.040  1.272  1.029  0.737  0.272  0.000  0.020  497.00  398.67  242.58  148.74    0.00    7.36   0.216   0.031   0.010   0.006   0.004   0.004
 1997 317   113  21.50  35.20  21.00  5.408  4.895  1.265  0.934  0.666  0.252  0.000  0.016  502.41  399.61  243.25  148.99    0.00    7.37   0.197   0.031   0.010   0.006   0.004   0.004
 1997 318   114  22.40  35.00  21.00  5.570  5.023  1.331  0.854  0.608  0.233  0.000  0.013  507.98  400.46  243.85  149.22    0.00    7.39   0.179   0.030   0.010   0.006   0.004   0.004
 1997 319   115  22.10  35.00  21.70  5.521  4.957  1.349  0.785  0.558  0.216  0.000  0.011  513.50  401.25  244.41  149.44    0.00    7.40   0.163   0.030   0.010   0.006   0.004   0.004
 1997 320   116  19.50  35.80  20.00  5.030  4.496  1.256  0.726  0.515  0.201  0.000  0.009  518.53  401.97  244.93  149.64    0.00    7.41   0.148   0.029   0.010   0.006   0.004   0.004
 1997 321   117  19.30  35.50  20.30  4.906  4.366  1.253  0.674  0.479  0.187  0.000  0.008  523.43  402.65  245.41  149.83    0.00    7.41   0.134   0.029   0.010   0.006   0.004   0.004
 1997 322   118  19.90  36.30  21.50  5.323  4.714  1.389  0.628  0.446  0.174  0.000  0.008  528.76  403.28  245.85  150.00    0.00    7.42   0.122   0.029   0.010   0.006   0.003   0.004
 1997 323   119  19.00  33.50  20.50  4.629  4.079  1.235  0.587  0.417  0.163  0.000  0.007  533.39  403.86  246.27  150.17    0.00    7.43   0.111   0.028   0.010   0.006   0.003   0.004
 1997 324   120  22.20  35.50  21.00  5.664  4.966  1.544  0.550  0.391  0.152  0.000  0.007  539.05  404.41  246.66  150.32    0.00    7.44   0.101   0.028   0.010   0.006   0.003   0.004
