*Surface Mulch daily output file

*DSSAT Cropping System Model Ver. 4.5.1.023 -Stub         NOV 08, 2014; 00:45:26
                                                                                
*RUN   1        : 97 DATE1 CHINESE          CRGRO045 GHNY9701    1              
 MODEL          : CRGRO045 - Peanut                                             
 EXPERIMENT     : GHNY9701 PN 1997 VARIETY X PLANTING DATE EXPERIMENT           
 DATA PATH      :                                                               
 TREATMENT  1   : 97 DATE1 CHINESE          CRGRO045                            
  
@YEAR DOY   DAS    MCFD   MDEPD    MWAD    MWTD
 1997 147     0   0.274    0.07    1000    0.19
 1997 148     1   0.274    0.07    1000    0.15
 1997 149     2   0.274    0.07    1000    0.11
 1997 150     3   0.274    0.07    1000    0.09
 1997 151     4   0.274    0.07    1000    0.07
 1997 152     5   0.274    0.07    1000    0.05
 1997 153     6   0.274    0.07    1000    0.04
 1997 154     7   0.274    0.07    1000    0.03
 1997 155     8   0.274    0.07    1000    0.38
 1997 156     9   0.274    0.07    1000    0.29
 1997 157    10   0.274    0.07    1000    0.40
 1997 158    11   0.274    0.07    1000    0.31
 1997 159    12   0.274    0.07    1000    0.24
 1997 160    13   0.274    0.07    1000    0.18
 1997 161    14   0.274    0.07    1000    0.14
 1997 162    15   0.274    0.07    1000    0.39
 1997 163    16   0.274    0.07    1000    0.30
 1997 164    17   0.274    0.07    1000    0.40
 1997 165    18   0.274    0.07    1000    0.36
 1997 166    19   0.274    0.07    1000    0.27
 1997 167    20   0.274    0.07    1000    0.40
 1997 168    21   0.274    0.07    1000    0.31
 1997 169    22   0.274    0.07    1001    0.24
 1997 170    23   0.274    0.07    1001    0.40
 1997 171    24   0.274    0.07    1001    0.30
 1997 172    25   0.274    0.07    1001    0.23
 1997 173    26   0.274    0.07    1001    0.40
 1997 174    27   0.274    0.07    1001    0.34
 1997 175    28   0.274    0.07    1001    0.26
 1997 176    29   0.274    0.07    1001    0.20
 1997 177    30   0.274    0.07    1002    0.15
 1997 178    31   0.274    0.07    1002    0.12
 1997 179    32   0.274    0.07    1002    0.39
 1997 180    33   0.274    0.07    1002    0.30
 1997 181    34   0.274    0.07    1003    0.40
 1997 182    35   0.275    0.07    1003    0.31
 1997 183    36   0.275    0.07    1003    0.24
 1997 184    37   0.275    0.07    1004    0.18
 1997 185    38   0.275    0.07    1004    0.14
 1997 186    39   0.275    0.07    1004    0.39
 1997 187    40   0.275    0.07    1005    0.30
 1997 188    41   0.275    0.07    1006    0.23
 1997 189    42   0.275    0.07    1006    0.18
 1997 190    43   0.275    0.07    1007    0.14
 1997 191    44   0.276    0.07    1008    0.39
 1997 192    45   0.276    0.07    1008    0.30
 1997 193    46   0.276    0.07    1009    0.40
 1997 194    47   0.276    0.07    1010    0.31
 1997 195    48   0.277    0.07    1013    0.41
 1997 196    49   0.277    0.07    1015    0.36
 1997 197    50   0.278    0.07    1018    0.40
 1997 198    51   0.278    0.07    1019    0.30
 1997 199    52   0.279    0.07    1021    0.23
 1997 200    53   0.279    0.07    1022    0.18
 1997 201    54   0.279    0.07    1024    0.27
 1997 202    55   0.280    0.07    1026    0.37
 1997 203    56   0.280    0.07    1028    0.28
 1997 204    57   0.281    0.07    1030    0.41
 1997 205    58   0.281    0.07    1031    0.36
 1997 206    59   0.282    0.07    1034    0.27
 1997 207    60   0.282    0.07    1036    0.21
 1997 208    61   0.283    0.07    1038    0.16
 1997 209    62   0.283    0.07    1041    0.12
 1997 210    63   0.284    0.07    1043    0.40
 1997 211    64   0.284    0.08    1046    0.33
 1997 212    65   0.285    0.08    1049    0.25
 1997 213    66   0.286    0.08    1052    0.42
 1997 214    67   0.287    0.08    1055    0.32
 1997 215    68   0.287    0.08    1058    0.24
 1997 216    69   0.288    0.08    1061    0.18
 1997 217    70   0.289    0.08    1064    0.42
 1997 218    71   0.289    0.08    1068    0.33
 1997 219    72   0.290    0.08    1071    0.25
 1997 220    73   0.291    0.08    1074    0.19
 1997 221    74   0.292    0.08    1078    0.14
 1997 222    75   0.292    0.08    1081    0.11
 1997 223    76   0.293    0.08    1084    0.08
 1997 224    77   0.294    0.08    1087    0.06
 1997 225    78   0.295    0.08    1090    0.05
 1997 226    79   0.295    0.08    1093    0.04
 1997 227    80   0.296    0.08    1097    0.42
 1997 228    81   0.297    0.08    1100    0.31
 1997 229    82   0.297    0.08    1103    0.24
 1997 230    83   0.298    0.08    1106    0.44
 1997 231    84   0.299    0.08    1109    0.33
 1997 232    85   0.299    0.08    1112    0.25
 1997 233    86   0.300    0.08    1115    0.44
 1997 234    87   0.301    0.09    1118    0.33
 1997 235    88   0.302    0.09    1121    0.25
 1997 236    89   0.302    0.09    1124    0.18
 1997 237    90   0.303    0.09    1127    0.44
 1997 238    91   0.303    0.09    1129    0.33
 1997 239    92   0.304    0.09    1131    0.46
 1997 240    93   0.304    0.09    1133    0.34
 1997 241    94   0.305    0.09    1136    0.46
 1997 242    95   0.305    0.09    1138    0.34
 1997 243    96   0.306    0.09    1141    0.25
 1997 244    97   0.306    0.09    1143    0.19
 1997 245    98   0.307    0.09    1145    0.14
 1997 246    99   0.307    0.09    1147    0.32
 1997 247   100   0.307    0.09    1148    0.39
 1997 248   101   0.308    0.09    1150    0.42
 1997 249   102   0.308    0.09    1151    0.31

*DSSAT Cropping System Model Ver. 4.5.1.023 -Stub         NOV 08, 2014; 00:45:26
                                                                                
*RUN   2        : 97 DATE1 F-MIX            CRGRO045 GHNY9701    2              
 MODEL          : CRGRO045 - Peanut                                             
 EXPERIMENT     : GHNY9701 PN 1997 VARIETY X PLANTING DATE EXPERIMENT           
 DATA PATH      :                                                               
 TREATMENT  2   : 97 DATE1 F-MIX            CRGRO045                            
  
@YEAR DOY   DAS    MCFD   MDEPD    MWAD    MWTD
 1997 147     0   0.274    0.07    1000    0.19
 1997 148     1   0.274    0.07    1000    0.15
 1997 149     2   0.274    0.07    1000    0.11
 1997 150     3   0.274    0.07    1000    0.09
 1997 151     4   0.274    0.07    1000    0.07
 1997 152     5   0.274    0.07    1000    0.05
 1997 153     6   0.274    0.07    1000    0.04
 1997 154     7   0.274    0.07    1000    0.03
 1997 155     8   0.274    0.07    1000    0.38
 1997 156     9   0.274    0.07    1000    0.29
 1997 157    10   0.274    0.07    1000    0.40
 1997 158    11   0.274    0.07    1000    0.31
 1997 159    12   0.274    0.07    1000    0.24
 1997 160    13   0.274    0.07    1000    0.18
 1997 161    14   0.274    0.07    1000    0.14
 1997 162    15   0.274    0.07    1000    0.39
 1997 163    16   0.274    0.07    1000    0.30
 1997 164    17   0.274    0.07    1000    0.40
 1997 165    18   0.274    0.07    1000    0.36
 1997 166    19   0.274    0.07    1000    0.27
 1997 167    20   0.274    0.07    1000    0.40
 1997 168    21   0.274    0.07    1001    0.31
 1997 169    22   0.274    0.07    1001    0.24
 1997 170    23   0.274    0.07    1001    0.40
 1997 171    24   0.274    0.07    1001    0.30
 1997 172    25   0.274    0.07    1001    0.23
 1997 173    26   0.274    0.07    1001    0.40
 1997 174    27   0.274    0.07    1001    0.34
 1997 175    28   0.274    0.07    1001    0.26
 1997 176    29   0.274    0.07    1001    0.20
 1997 177    30   0.274    0.07    1002    0.15
 1997 178    31   0.274    0.07    1002    0.12
 1997 179    32   0.274    0.07    1002    0.39
 1997 180    33   0.274    0.07    1002    0.30
 1997 181    34   0.274    0.07    1003    0.40
 1997 182    35   0.275    0.07    1003    0.31
 1997 183    36   0.275    0.07    1003    0.24
 1997 184    37   0.275    0.07    1004    0.18
 1997 185    38   0.275    0.07    1004    0.14
 1997 186    39   0.275    0.07    1004    0.39
 1997 187    40   0.275    0.07    1005    0.30
 1997 188    41   0.275    0.07    1006    0.23
 1997 189    42   0.275    0.07    1006    0.18
 1997 190    43   0.275    0.07    1007    0.14
 1997 191    44   0.276    0.07    1008    0.39
 1997 192    45   0.276    0.07    1009    0.30
 1997 193    46   0.276    0.07    1009    0.40
 1997 194    47   0.276    0.07    1010    0.31
 1997 195    48   0.277    0.07    1013    0.41
 1997 196    49   0.277    0.07    1015    0.36
 1997 197    50   0.278    0.07    1018    0.40
 1997 198    51   0.279    0.07    1021    0.30
 1997 199    52   0.279    0.07    1023    0.23
 1997 200    53   0.280    0.07    1025    0.18
 1997 201    54   0.280    0.07    1027    0.28
 1997 202    55   0.280    0.07    1028    0.37
 1997 203    56   0.281    0.07    1030    0.28
 1997 204    57   0.281    0.07    1033    0.41
 1997 205    58   0.282    0.07    1035    0.36
 1997 206    59   0.282    0.07    1037    0.27
 1997 207    60   0.283    0.07    1040    0.21
 1997 208    61   0.284    0.07    1042    0.16
 1997 209    62   0.284    0.07    1045    0.12
 1997 210    63   0.285    0.08    1048    0.41
 1997 211    64   0.286    0.08    1051    0.34
 1997 212    65   0.286    0.08    1055    0.27
 1997 213    66   0.287    0.08    1058    0.41
 1997 214    67   0.288    0.08    1062    0.31
 1997 215    68   0.289    0.08    1065    0.23
 1997 216    69   0.290    0.08    1069    0.18
 1997 217    70   0.291    0.08    1073    0.42
 1997 218    71   0.291    0.08    1076    0.36
 1997 219    72   0.292    0.08    1080    0.27
 1997 220    73   0.293    0.08    1084    0.21
 1997 221    74   0.294    0.08    1088    0.15
 1997 222    75   0.295    0.08    1092    0.12
 1997 223    76   0.296    0.08    1097    0.09
 1997 224    77   0.297    0.08    1101    0.07
 1997 225    78   0.298    0.08    1105    0.05
 1997 226    79   0.299    0.08    1109    0.04
 1997 227    80   0.300    0.08    1114    0.42
 1997 228    81   0.301    0.09    1118    0.32
 1997 229    82   0.302    0.09    1123    0.24
 1997 230    83   0.303    0.09    1127    0.45
 1997 231    84   0.304    0.09    1132    0.33
 1997 232    85   0.305    0.09    1136    0.25
 1997 233    86   0.306    0.09    1141    0.45
 1997 234    87   0.307    0.09    1146    0.34
 1997 235    88   0.308    0.09    1151    0.29
 1997 236    89   0.309    0.09    1156    0.21
 1997 237    90   0.310    0.09    1161    0.46
 1997 238    91   0.312    0.09    1166    0.34
 1997 239    92   0.313    0.09    1172    0.47
 1997 240    93   0.314    0.09    1176    0.40
 1997 241    94   0.315    0.09    1181    0.41
 1997 242    95   0.316    0.10    1186    0.30
 1997 243    96   0.317    0.10    1191    0.22
 1997 244    97   0.318    0.10    1196    0.16
 1997 245    98   0.319    0.10    1201    0.12
 1997 246    99   0.320    0.10    1206    0.31
 1997 247   100   0.321    0.10    1210    0.41
 1997 248   101   0.322    0.10    1215    0.43
 1997 249   102   0.323    0.10    1219    0.33
 1997 250   103   0.324    0.10    1223    0.24
 1997 251   104   0.325    0.10    1227    0.49
 1997 252   105   0.326    0.10    1232    0.43
 1997 253   106   0.327    0.10    1236    0.45
 1997 254   107   0.327    0.10    1240    0.33
 1997 255   108   0.328    0.10    1244    0.24
 1997 256   109   0.329    0.10    1247    0.50
 1997 257   110   0.330    0.11    1251    0.37
 1997 258   111   0.331    0.11    1255    0.50
 1997 259   112   0.331    0.11    1258    0.36
 1997 260   113   0.332    0.11    1262    0.52
 1997 261   114   0.333    0.11    1265    0.51
 1997 262   115   0.334    0.11    1269    0.37
 1997 263   116   0.334    0.11    1272    0.27
 1997 264   117   0.335    0.11    1276    0.19
 1997 265   118   0.336    0.11    1279    0.51
 1997 266   119   0.337    0.11    1282    0.44
 1997 267   120   0.337    0.11    1285    0.42
 1997 268   121   0.338    0.11    1288    0.35
 1997 269   122   0.338    0.11    1291    0.25
 1997 270   123   0.339    0.11    1294    0.52

*DSSAT Cropping System Model Ver. 4.5.1.023 -Stub         NOV 08, 2014; 00:45:26
                                                                                
*RUN   3        : 97 DATE2 CHINESE          CRGRO045 GHNY9701    3              
 MODEL          : CRGRO045 - Peanut                                             
 EXPERIMENT     : GHNY9701 PN 1997 VARIETY X PLANTING DATE EXPERIMENT           
 DATA PATH      :                                                               
 TREATMENT  3   : 97 DATE2 CHINESE          CRGRO045                            
  
@YEAR DOY   DAS    MCFD   MDEPD    MWAD    MWTD
 1997 175     0   0.274    0.07    1000    0.19
 1997 176     1   0.274    0.07    1000    0.15
 1997 177     2   0.274    0.07    1000    0.11
 1997 178     3   0.274    0.07    1000    0.09
 1997 179     4   0.274    0.07    1000    0.39
 1997 180     5   0.274    0.07    1000    0.30
 1997 181     6   0.274    0.07    1000    0.40
 1997 182     7   0.274    0.07    1000    0.31
 1997 183     8   0.274    0.07    1000    0.24
 1997 184     9   0.274    0.07    1000    0.18
 1997 185    10   0.274    0.07    1000    0.14
 1997 186    11   0.274    0.07    1000    0.39
 1997 187    12   0.274    0.07    1000    0.30
 1997 188    13   0.274    0.07    1000    0.23
 1997 189    14   0.274    0.07    1000    0.18
 1997 190    15   0.274    0.07    1000    0.14
 1997 191    16   0.274    0.07    1000    0.39
 1997 192    17   0.274    0.07    1000    0.30
 1997 193    18   0.274    0.07    1000    0.40
 1997 194    19   0.274    0.07    1000    0.31
 1997 195    20   0.274    0.07    1000    0.40
 1997 196    21   0.274    0.07    1000    0.36
 1997 197    22   0.274    0.07    1001    0.39
 1997 198    23   0.274    0.07    1001    0.30
 1997 199    24   0.274    0.07    1001    0.23
 1997 200    25   0.274    0.07    1001    0.18
 1997 201    26   0.274    0.07    1001    0.27
 1997 202    27   0.274    0.07    1001    0.36
 1997 203    28   0.274    0.07    1001    0.27
 1997 204    29   0.274    0.07    1001    0.40
 1997 205    30   0.274    0.07    1002    0.35
 1997 206    31   0.274    0.07    1002    0.27
 1997 207    32   0.274    0.07    1002    0.21
 1997 208    33   0.274    0.07    1002    0.16
 1997 209    34   0.274    0.07    1002    0.12
 1997 210    35   0.275    0.07    1003    0.39
 1997 211    36   0.275    0.07    1003    0.32
 1997 212    37   0.275    0.07    1004    0.24
 1997 213    38   0.275    0.07    1004    0.40
 1997 214    39   0.275    0.07    1004    0.31
 1997 215    40   0.275    0.07    1005    0.23
 1997 216    41   0.275    0.07    1005    0.18
 1997 217    42   0.275    0.07    1006    0.39
 1997 218    43   0.275    0.07    1007    0.30
 1997 219    44   0.276    0.07    1007    0.23
 1997 220    45   0.276    0.07    1008    0.18
 1997 221    46   0.276    0.07    1009    0.14
 1997 222    47   0.276    0.07    1011    0.10
 1997 223    48   0.277    0.07    1013    0.08
 1997 224    49   0.277    0.07    1015    0.06
 1997 225    50   0.278    0.07    1018    0.05
 1997 226    51   0.279    0.07    1020    0.04
 1997 227    52   0.279    0.07    1022    0.39
 1997 228    53   0.279    0.07    1024    0.30
 1997 229    54   0.280    0.07    1025    0.23
 1997 230    55   0.280    0.07    1027    0.41
 1997 231    56   0.281    0.07    1029    0.31
 1997 232    57   0.281    0.07    1031    0.24
 1997 233    58   0.282    0.07    1033    0.41
 1997 234    59   0.282    0.07    1035    0.31
 1997 235    60   0.283    0.07    1038    0.24
 1997 236    61   0.283    0.07    1041    0.18
 1997 237    62   0.284    0.07    1044    0.41
 1997 238    63   0.285    0.08    1047    0.31
 1997 239    64   0.285    0.08    1050    0.42
 1997 240    65   0.286    0.08    1053    0.32
 1997 241    66   0.287    0.08    1056    0.42
 1997 242    67   0.287    0.08    1059    0.32
 1997 243    68   0.288    0.08    1063    0.24
 1997 244    69   0.289    0.08    1066    0.18
 1997 245    70   0.290    0.08    1070    0.14
 1997 246    71   0.291    0.08    1074    0.31
 1997 247    72   0.292    0.08    1078    0.37
 1997 248    73   0.292    0.08    1081    0.40
 1997 249    74   0.293    0.08    1085    0.30
 1997 250    75   0.294    0.08    1088    0.22
 1997 251    76   0.295    0.08    1092    0.43
 1997 252    77   0.296    0.08    1096    0.36
 1997 253    78   0.297    0.08    1099    0.43
 1997 254    79   0.297    0.08    1103    0.32
 1997 255    80   0.298    0.08    1106    0.24
 1997 256    81   0.299    0.08    1110    0.44
 1997 257    82   0.300    0.08    1113    0.33
 1997 258    83   0.300    0.08    1116    0.45
 1997 259    84   0.301    0.09    1120    0.34
 1997 260    85   0.302    0.09    1123    0.45
 1997 261    86   0.303    0.09    1127    0.41
 1997 262    87   0.303    0.09    1130    0.31
 1997 263    88   0.304    0.09    1133    0.23
 1997 264    89   0.305    0.09    1136    0.17
 1997 265    90   0.306    0.09    1140    0.45
 1997 266    91   0.307    0.09    1145    0.36
 1997 267    92   0.308    0.09    1149    0.43
 1997 268    93   0.309    0.09    1153    0.32
 1997 269    94   0.310    0.09    1158    0.24
 1997 270    95   0.310    0.09    1160    0.46
 1997 271    96   0.311    0.09    1164    0.34
 1997 272    97   0.312    0.09    1168    0.47
 1997 273    98   0.312    0.09    1171    0.35
 1997 274    99   0.313    0.09    1172    0.26
 1997 275   100   0.313    0.09    1175    0.47
 1997 276   101   0.314    0.09    1176    0.35
 1997 277   102   0.314    0.09    1179    0.25

*DSSAT Cropping System Model Ver. 4.5.1.023 -Stub         NOV 08, 2014; 00:45:26
                                                                                
*RUN   4        : 97 DATE2 F-MIX            CRGRO045 GHNY9701    4              
 MODEL          : CRGRO045 - Peanut                                             
 EXPERIMENT     : GHNY9701 PN 1997 VARIETY X PLANTING DATE EXPERIMENT           
 DATA PATH      :                                                               
 TREATMENT  4   : 97 DATE2 F-MIX            CRGRO045                            
  
@YEAR DOY   DAS    MCFD   MDEPD    MWAD    MWTD
 1997 175     0   0.274    0.07    1000    0.19
 1997 176     1   0.274    0.07    1000    0.15
 1997 177     2   0.274    0.07    1000    0.11
 1997 178     3   0.274    0.07    1000    0.09
 1997 179     4   0.274    0.07    1000    0.39
 1997 180     5   0.274    0.07    1000    0.30
 1997 181     6   0.274    0.07    1000    0.40
 1997 182     7   0.274    0.07    1000    0.31
 1997 183     8   0.274    0.07    1000    0.24
 1997 184     9   0.274    0.07    1000    0.18
 1997 185    10   0.274    0.07    1000    0.14
 1997 186    11   0.274    0.07    1000    0.39
 1997 187    12   0.274    0.07    1000    0.30
 1997 188    13   0.274    0.07    1000    0.23
 1997 189    14   0.274    0.07    1000    0.18
 1997 190    15   0.274    0.07    1000    0.14
 1997 191    16   0.274    0.07    1000    0.39
 1997 192    17   0.274    0.07    1000    0.30
 1997 193    18   0.274    0.07    1000    0.40
 1997 194    19   0.274    0.07    1000    0.31
 1997 195    20   0.274    0.07    1000    0.40
 1997 196    21   0.274    0.07    1001    0.36
 1997 197    22   0.274    0.07    1001    0.39
 1997 198    23   0.274    0.07    1001    0.30
 1997 199    24   0.274    0.07    1001    0.23
 1997 200    25   0.274    0.07    1001    0.18
 1997 201    26   0.274    0.07    1001    0.27
 1997 202    27   0.274    0.07    1001    0.36
 1997 203    28   0.274    0.07    1001    0.27
 1997 204    29   0.274    0.07    1001    0.40
 1997 205    30   0.274    0.07    1002    0.35
 1997 206    31   0.274    0.07    1002    0.27
 1997 207    32   0.274    0.07    1002    0.21
 1997 208    33   0.274    0.07    1002    0.16
 1997 209    34   0.274    0.07    1002    0.12
 1997 210    35   0.274    0.07    1003    0.39
 1997 211    36   0.275    0.07    1003    0.32
 1997 212    37   0.275    0.07    1003    0.24
 1997 213    38   0.275    0.07    1004    0.40
 1997 214    39   0.275    0.07    1004    0.31
 1997 215    40   0.275    0.07    1005    0.23
 1997 216    41   0.275    0.07    1005    0.18
 1997 217    42   0.275    0.07    1006    0.39
 1997 218    43   0.275    0.07    1007    0.30
 1997 219    44   0.276    0.07    1007    0.23
 1997 220    45   0.276    0.07    1008    0.18
 1997 221    46   0.276    0.07    1009    0.14
 1997 222    47   0.276    0.07    1010    0.10
 1997 223    48   0.277    0.07    1012    0.08
 1997 224    49   0.277    0.07    1015    0.06
 1997 225    50   0.278    0.07    1017    0.05
 1997 226    51   0.279    0.07    1021    0.04
 1997 227    52   0.280    0.07    1025    0.39
 1997 228    53   0.280    0.07    1027    0.30
 1997 229    54   0.280    0.07    1029    0.23
 1997 230    55   0.281    0.07    1030    0.41
 1997 231    56   0.281    0.07    1032    0.31
 1997 232    57   0.282    0.07    1034    0.24
 1997 233    58   0.282    0.07    1037    0.41
 1997 234    59   0.283    0.07    1039    0.31
 1997 235    60   0.283    0.07    1042    0.24
 1997 236    61   0.284    0.07    1044    0.18
 1997 237    62   0.285    0.08    1047    0.41
 1997 238    63   0.285    0.08    1050    0.31
 1997 239    64   0.286    0.08    1054    0.42
 1997 240    65   0.287    0.08    1057    0.33
 1997 241    66   0.288    0.08    1060    0.41
 1997 242    67   0.289    0.08    1064    0.31
 1997 243    68   0.289    0.08    1068    0.24
 1997 244    69   0.290    0.08    1072    0.18
 1997 245    70   0.291    0.08    1076    0.14
 1997 246    71   0.292    0.08    1080    0.31
 1997 247    72   0.293    0.08    1084    0.37
 1997 248    73   0.294    0.08    1088    0.40
 1997 249    74   0.295    0.08    1093    0.30
 1997 250    75   0.296    0.08    1097    0.22
 1997 251    76   0.297    0.08    1102    0.44
 1997 252    77   0.298    0.08    1106    0.38
 1997 253    78   0.299    0.08    1111    0.42
 1997 254    79   0.300    0.08    1116    0.31
 1997 255    80   0.301    0.09    1120    0.23
 1997 256    81   0.302    0.09    1125    0.45
 1997 257    82   0.303    0.09    1129    0.33
 1997 258    83   0.304    0.09    1134    0.46
 1997 259    84   0.306    0.09    1139    0.34
 1997 260    85   0.307    0.09    1144    0.46
 1997 261    86   0.308    0.09    1149    0.46
 1997 262    87   0.309    0.09    1154    0.35
 1997 263    88   0.310    0.09    1159    0.26
 1997 264    89   0.311    0.09    1165    0.19
 1997 265    90   0.312    0.09    1170    0.46
 1997 266    91   0.313    0.09    1175    0.41
 1997 267    92   0.314    0.09    1180    0.39
 1997 268    93   0.316    0.09    1185    0.33
 1997 269    94   0.317    0.10    1190    0.24
 1997 270    95   0.318    0.10    1195    0.48
 1997 271    96   0.319    0.10    1200    0.35
 1997 272    97   0.320    0.10    1205    0.49
 1997 273    98   0.321    0.10    1210    0.36
 1997 274    99   0.322    0.10    1215    0.26
 1997 275   100   0.323    0.10    1220    0.49
 1997 276   101   0.324    0.10    1225    0.38
 1997 277   102   0.325    0.10    1230    0.28
 1997 278   103   0.326    0.10    1234    0.50
 1997 279   104   0.327    0.10    1238    0.40
 1997 280   105   0.328    0.10    1243    0.29
 1997 281   106   0.329    0.10    1248    0.51
 1997 282   107   0.330    0.11    1252    0.37
 1997 283   108   0.331    0.11    1256    0.27
 1997 284   109   0.332    0.11    1260    0.19
 1997 285   110   0.333    0.11    1264    0.14
 1997 286   111   0.334    0.11    1268    0.10
 1997 287   112   0.334    0.11    1272    0.21
 1997 288   113   0.335    0.11    1276    0.45
 1997 289   114   0.336    0.11    1279    0.32
 1997 290   115   0.337    0.11    1282    0.23
 1997 291   116   0.337    0.11    1286    0.51
 1997 292   117   0.338    0.11    1289    0.41
 1997 293   118   0.339    0.11    1292    0.29
 1997 294   119   0.339    0.11    1294    0.21
 1997 295   120   0.340    0.11    1297    0.15
 1997 296   121   0.340    0.11    1299    0.11
 1997 297   122   0.341    0.11    1302    0.51
 1997 298   123   0.341    0.11    1304    0.36

*DSSAT Cropping System Model Ver. 4.5.1.023 -Stub         NOV 08, 2014; 00:45:26
                                                                                
*RUN   5        : 97 DATE3 CHINESE          CRGRO045 GHNY9701    5              
 MODEL          : CRGRO045 - Peanut                                             
 EXPERIMENT     : GHNY9701 PN 1997 VARIETY X PLANTING DATE EXPERIMENT           
 DATA PATH      :                                                               
 TREATMENT  5   : 97 DATE3 CHINESE          CRGRO045                            
  
@YEAR DOY   DAS    MCFD   MDEPD    MWAD    MWTD
 1997 203     0   0.274    0.07    1000    0.19
 1997 204     1   0.274    0.07    1000    0.34
 1997 205     2   0.274    0.07    1000    0.35
 1997 206     3   0.274    0.07    1000    0.27
 1997 207     4   0.274    0.07    1000    0.20
 1997 208     5   0.274    0.07    1000    0.16
 1997 209     6   0.274    0.07    1000    0.12
 1997 210     7   0.274    0.07    1000    0.39
 1997 211     8   0.274    0.07    1000    0.32
 1997 212     9   0.274    0.07    1000    0.24
 1997 213    10   0.274    0.07    1000    0.40
 1997 214    11   0.274    0.07    1000    0.30
 1997 215    12   0.274    0.07    1000    0.23
 1997 216    13   0.274    0.07    1000    0.18
 1997 217    14   0.274    0.07    1000    0.39
 1997 218    15   0.274    0.07    1000    0.30
 1997 219    16   0.274    0.07    1000    0.23
 1997 220    17   0.274    0.07    1000    0.18
 1997 221    18   0.274    0.07    1000    0.14
 1997 222    19   0.274    0.07    1000    0.10
 1997 223    20   0.274    0.07    1000    0.08
 1997 224    21   0.274    0.07    1001    0.06
 1997 225    22   0.274    0.07    1001    0.05
 1997 226    23   0.274    0.07    1001    0.04
 1997 227    24   0.274    0.07    1001    0.38
 1997 228    25   0.274    0.07    1001    0.29
 1997 229    26   0.274    0.07    1001    0.23
 1997 230    27   0.274    0.07    1001    0.40
 1997 231    28   0.274    0.07    1001    0.30
 1997 232    29   0.274    0.07    1001    0.23
 1997 233    30   0.274    0.07    1002    0.40
 1997 234    31   0.274    0.07    1002    0.30
 1997 235    32   0.274    0.07    1002    0.23
 1997 236    33   0.274    0.07    1002    0.18
 1997 237    34   0.274    0.07    1003    0.39
 1997 238    35   0.275    0.07    1003    0.30
 1997 239    36   0.275    0.07    1003    0.40
 1997 240    37   0.275    0.07    1004    0.31
 1997 241    38   0.275    0.07    1004    0.40
 1997 242    39   0.275    0.07    1005    0.31
 1997 243    40   0.275    0.07    1005    0.24
 1997 244    41   0.275    0.07    1006    0.18
 1997 245    42   0.275    0.07    1006    0.14
 1997 246    43   0.275    0.07    1007    0.30
 1997 247    44   0.276    0.07    1008    0.35
 1997 248    45   0.276    0.07    1009    0.37
 1997 249    46   0.276    0.07    1010    0.29
 1997 250    47   0.277    0.07    1012    0.22
 1997 251    48   0.277    0.07    1015    0.40
 1997 252    49   0.278    0.07    1017    0.34
 1997 253    50   0.278    0.07    1019    0.40
 1997 254    51   0.279    0.07    1021    0.31
 1997 255    52   0.279    0.07    1022    0.23
 1997 256    53   0.279    0.07    1024    0.41
 1997 257    54   0.280    0.07    1026    0.31
 1997 258    55   0.280    0.07    1028    0.41
 1997 259    56   0.281    0.07    1030    0.31
 1997 260    57   0.281    0.07    1032    0.41
 1997 261    58   0.282    0.07    1034    0.37
 1997 262    59   0.282    0.07    1037    0.28
 1997 263    60   0.283    0.07    1039    0.21
 1997 264    61   0.284    0.07    1042    0.16
 1997 265    62   0.284    0.07    1045    0.41
 1997 266    63   0.285    0.08    1048    0.32
 1997 267    64   0.286    0.08    1051    0.41
 1997 268    65   0.286    0.08    1054    0.31
 1997 269    66   0.287    0.08    1057    0.24
 1997 270    67   0.288    0.08    1060    0.42
 1997 271    68   0.289    0.08    1064    0.32
 1997 272    69   0.289    0.08    1067    0.43
 1997 273    70   0.290    0.08    1071    0.32
 1997 274    71   0.291    0.08    1075    0.24
 1997 275    72   0.292    0.08    1079    0.43
 1997 276    73   0.293    0.08    1083    0.32
 1997 277    74   0.294    0.08    1087    0.24
 1997 278    75   0.295    0.08    1092    0.43
 1997 279    76   0.296    0.08    1095    0.37
 1997 280    77   0.297    0.08    1100    0.28
 1997 281    78   0.298    0.08    1104    0.44
 1997 282    79   0.298    0.08    1108    0.33
 1997 283    80   0.299    0.08    1112    0.25
 1997 284    81   0.300    0.08    1116    0.18
 1997 285    82   0.301    0.09    1120    0.14
 1997 286    83   0.302    0.09    1123    0.10
 1997 287    84   0.303    0.09    1126    0.20
 1997 288    85   0.303    0.09    1130    0.40
 1997 289    86   0.304    0.09    1133    0.30
 1997 290    87   0.305    0.09    1135    0.22
 1997 291    88   0.305    0.09    1138    0.45
 1997 292    89   0.306    0.09    1140    0.33
 1997 293    90   0.306    0.09    1143    0.25
 1997 294    91   0.307    0.09    1145    0.18
 1997 295    92   0.307    0.09    1147    0.14
 1997 296    93   0.308    0.09    1151    0.10
 1997 297    94   0.309    0.09    1154    0.45
 1997 298    95   0.310    0.09    1158    0.33
 1997 299    96   0.310    0.09    1161    0.47
 1997 300    97   0.311    0.09    1162    0.35
 1997 301    98   0.311    0.09    1165    0.47
 1997 302    99   0.312    0.09    1168    0.35
 1997 303   100   0.312    0.09    1170    0.26
 1997 304   101   0.313    0.09    1171    0.19
 1997 305   102   0.313    0.09    1173    0.14

*DSSAT Cropping System Model Ver. 4.5.1.023 -Stub         NOV 08, 2014; 00:45:26
                                                                                
*RUN   6        : 97 DATE3 F-MIX            CRGRO045 GHNY9701    6              
 MODEL          : CRGRO045 - Peanut                                             
 EXPERIMENT     : GHNY9701 PN 1997 VARIETY X PLANTING DATE EXPERIMENT           
 DATA PATH      :                                                               
 TREATMENT  6   : 97 DATE3 F-MIX            CRGRO045                            
  
@YEAR DOY   DAS    MCFD   MDEPD    MWAD    MWTD
 1997 203     0   0.274    0.07    1000    0.19
 1997 204     1   0.274    0.07    1000    0.34
 1997 205     2   0.274    0.07    1000    0.35
 1997 206     3   0.274    0.07    1000    0.27
 1997 207     4   0.274    0.07    1000    0.20
 1997 208     5   0.274    0.07    1000    0.16
 1997 209     6   0.274    0.07    1000    0.12
 1997 210     7   0.274    0.07    1000    0.39
 1997 211     8   0.274    0.07    1000    0.32
 1997 212     9   0.274    0.07    1000    0.24
 1997 213    10   0.274    0.07    1000    0.40
 1997 214    11   0.274    0.07    1000    0.30
 1997 215    12   0.274    0.07    1000    0.23
 1997 216    13   0.274    0.07    1000    0.18
 1997 217    14   0.274    0.07    1000    0.39
 1997 218    15   0.274    0.07    1000    0.30
 1997 219    16   0.274    0.07    1000    0.23
 1997 220    17   0.274    0.07    1000    0.18
 1997 221    18   0.274    0.07    1000    0.14
 1997 222    19   0.274    0.07    1000    0.10
 1997 223    20   0.274    0.07    1000    0.08
 1997 224    21   0.274    0.07    1001    0.06
 1997 225    22   0.274    0.07    1001    0.05
 1997 226    23   0.274    0.07    1001    0.04
 1997 227    24   0.274    0.07    1001    0.38
 1997 228    25   0.274    0.07    1001    0.29
 1997 229    26   0.274    0.07    1001    0.23
 1997 230    27   0.274    0.07    1001    0.40
 1997 231    28   0.274    0.07    1001    0.30
 1997 232    29   0.274    0.07    1001    0.23
 1997 233    30   0.274    0.07    1002    0.40
 1997 234    31   0.274    0.07    1002    0.30
 1997 235    32   0.274    0.07    1002    0.23
 1997 236    33   0.274    0.07    1002    0.18
 1997 237    34   0.274    0.07    1003    0.39
 1997 238    35   0.275    0.07    1003    0.30
 1997 239    36   0.275    0.07    1003    0.40
 1997 240    37   0.275    0.07    1004    0.31
 1997 241    38   0.275    0.07    1004    0.40
 1997 242    39   0.275    0.07    1005    0.31
 1997 243    40   0.275    0.07    1005    0.24
 1997 244    41   0.275    0.07    1006    0.18
 1997 245    42   0.275    0.07    1006    0.14
 1997 246    43   0.275    0.07    1007    0.30
 1997 247    44   0.276    0.07    1008    0.35
 1997 248    45   0.276    0.07    1009    0.37
 1997 249    46   0.276    0.07    1010    0.29
 1997 250    47   0.276    0.07    1011    0.22
 1997 251    48   0.277    0.07    1014    0.40
 1997 252    49   0.278    0.07    1016    0.34
 1997 253    50   0.278    0.07    1019    0.40
 1997 254    51   0.279    0.07    1022    0.31
 1997 255    52   0.280    0.07    1025    0.23
 1997 256    53   0.280    0.07    1027    0.41
 1997 257    54   0.281    0.07    1029    0.31
 1997 258    55   0.281    0.07    1031    0.41
 1997 259    56   0.282    0.07    1033    0.32
 1997 260    57   0.282    0.07    1036    0.42
 1997 261    58   0.283    0.07    1038    0.37
 1997 262    59   0.283    0.07    1041    0.28
 1997 263    60   0.284    0.07    1044    0.22
 1997 264    61   0.285    0.08    1047    0.16
 1997 265    62   0.285    0.08    1050    0.41
 1997 266    63   0.286    0.08    1053    0.34
 1997 267    64   0.287    0.08    1056    0.39
 1997 268    65   0.288    0.08    1060    0.31
 1997 269    66   0.288    0.08    1063    0.23
 1997 270    67   0.289    0.08    1067    0.42
 1997 271    68   0.290    0.08    1071    0.32
 1997 272    69   0.291    0.08    1075    0.43
 1997 273    70   0.292    0.08    1079    0.33
 1997 274    71   0.293    0.08    1083    0.25
 1997 275    72   0.294    0.08    1088    0.43
 1997 276    73   0.295    0.08    1093    0.32
 1997 277    74   0.296    0.08    1097    0.24
 1997 278    75   0.297    0.08    1102    0.44
 1997 279    76   0.298    0.08    1107    0.37
 1997 280    77   0.299    0.08    1112    0.28
 1997 281    78   0.300    0.08    1117    0.45
 1997 282    79   0.302    0.09    1122    0.34
 1997 283    80   0.303    0.09    1127    0.25
 1997 284    81   0.304    0.09    1133    0.19
 1997 285    82   0.305    0.09    1138    0.14
 1997 286    83   0.306    0.09    1143    0.10
 1997 287    84   0.308    0.09    1149    0.20
 1997 288    85   0.309    0.09    1154    0.41
 1997 289    86   0.310    0.09    1159    0.30
 1997 290    87   0.311    0.09    1165    0.23
 1997 291    88   0.312    0.09    1171    0.46
 1997 292    89   0.314    0.09    1176    0.37
 1997 293    90   0.315    0.09    1181    0.28
 1997 294    91   0.316    0.10    1187    0.21
 1997 295    92   0.317    0.10    1192    0.15
 1997 296    93   0.318    0.10    1196    0.11
 1997 297    94   0.319    0.10    1202    0.47
 1997 298    95   0.320    0.10    1207    0.34
 1997 299    96   0.321    0.10    1212    0.49
 1997 300    97   0.323    0.10    1217    0.36
 1997 301    98   0.324    0.10    1222    0.50
 1997 302    99   0.325    0.10    1227    0.36
 1997 303   100   0.326    0.10    1232    0.26
 1997 304   101   0.327    0.10    1237    0.19
 1997 305   102   0.328    0.10    1242    0.14
 1997 306   103   0.329    0.10    1247    0.10
 1997 307   104   0.330    0.11    1251    0.07
 1997 308   105   0.331    0.11    1257    0.05
 1997 309   106   0.332    0.11    1261    0.04
 1997 310   107   0.333    0.11    1266    0.03
 1997 311   108   0.334    0.11    1269    0.02
 1997 312   109   0.334    0.11    1271    0.18
 1997 313   110   0.335    0.11    1273    0.13
 1997 314   111   0.335    0.11    1274    0.09
 1997 315   112   0.340    0.11    1301    0.07
 1997 316   113   0.346    0.12    1328    0.05
 1997 317   114   0.352    0.12    1356    0.04
 1997 318   115   0.358    0.13    1385    0.04
 1997 319   116   0.364    0.13    1415    0.03
 1997 320   117   0.370    0.14    1445    0.03
 1997 321   118   0.376    0.14    1475    0.02
 1997 322   119   0.382    0.15    1505    0.02
 1997 323   120   0.388    0.15    1535    0.02
 1997 324   121   0.394    0.16    1564    0.02
