*PEST AND DISEASE DAMAGE OUTPUT FILE


*DSSAT Cropping System Model Ver. 4.5.1.023 -Stub         OCT 13, 2014; 10:48:17
                                                                                
*RUN   1        : 97 DATE1 CHINESE          CRGRO045 GHNY9701    1              
 MODEL          : CRGRO045 - Peanut                                             
 EXPERIMENT     : GHNY9701 PN able [sltx] with oversized content [1 SALO], only 
 DATA PATH      :                                                               
 TREATMENT  1   : 97 DATE1 CHINESE          CRGRO045                            
  
@YEAR DOY   DAS   DAP    DLA   DLA%    DLAI    DLFM    DSTM   DSDM   DSD#   DSHM   DSH#   DRTM    DRLV  DRLF   DASM   DPO%   CLAI    CLFM    CSTM    CSDM   CSD#  CSHM   CSH#   CRTM   CRLV   CRLF    CASM   CPO% 
 1997 149     1     0      0    0.0     0.0       0       0      0    0.0    0.0    0.0    0.0   0.00   0.00   0.00   0.00    0.0       0       0      0      0     0.      0     0.    0.0    0.0     0.0    0.0
 1997 150     2     1      0    0.0     0.0       0       0      0    0.0    0.0    0.0    0.0   0.00   0.00   0.00   0.00    0.0       0       0      0      0     0.      0     0.    0.0    0.0     0.0    0.0
 1997 151     3     2      0    0.0     0.0       0       0      0    0.0    0.0    0.0    0.0   0.00   0.00   0.00   0.00    0.0       0       0      0      0     0.      0     0.    0.0    0.0     0.0    0.0
 1997 152     4     3      0    0.0     0.0       0       0      0    0.0    0.0    0.0    0.0   0.00   0.00   0.00   0.00    0.0       0       0      0      0     0.      0     0.    0.0    0.0     0.0    0.0
 1997 153     5     4      0    0.0     0.0       0       0      0    0.0    0.0    0.0    0.0   0.00   0.00   0.00   0.00    0.0       0       0      0      0     0.      0     0.    0.0    0.0     0.0    0.0
 1997 154     6     5      0    0.0     0.0       0       0      0    0.0    0.0    0.0    0.0   0.00   0.00   0.00   0.00    0.0       0       0      0      0     0.      0     0.    0.0    0.0     0.0    0.0
 1997 155     7     6      0    0.0     0.0       0       0      0    0.0    0.0    0.0    0.0   0.00   0.00   0.00   0.00    0.0       0       0      0      0     0.      0     0.    0.0    0.0     0.0    0.0
 1997 156     8     7      0    0.0     0.0       0       0      0    0.0    0.0    0.0    0.0   0.00   0.00   0.00   0.00    0.0       0       0      0      0     0.      0     0.    0.0    0.0     0.0    0.0
 1997 157     9     8      0    0.0     0.0       0       0      0    0.0    0.0    0.0    0.0   0.00   0.00   0.00   0.00    0.0       0       0      0      0     0.      0     0.    0.0    0.0     0.0    0.0
 1997 158    10     9      0    0.0     0.0       0       0      0    0.0    0.0    0.0    0.0   0.00   0.00   0.00   0.00    0.0       0       0      0      0     0.      0     0.    0.0    0.0     0.0    0.0
 1997 159    11    10      0    0.0     0.0       0       0      0    0.0    0.0    0.0    0.0   0.00   0.00   0.00   0.00    0.0       0       0      0      0     0.      0     0.    0.0    0.0     0.0    0.0
 1997 160    12    11      0    0.0     0.0       0       0      0    0.0    0.0    0.0    0.0   0.00   0.00   0.00   0.00    0.0       0       0      0      0     0.      0     0.    0.0    0.0     0.0    0.0
 1997 161    13    12      0    0.0     0.0       0       0      0    0.0    0.0    0.0    0.0   0.00   0.00   0.00   0.00    0.0       0       0      0      0     0.      0     0.    0.0    0.0     0.0    0.0
 1997 162    14    13      0    0.0     0.0       0       0      0    0.0    0.0    0.0    0.0   0.00   0.00   0.00   0.00    0.0       0       0      0      0     0.      0     0.    0.0    0.0     0.0    0.0
 1997 163    15    14      0    0.0     0.0       0       0      0    0.0    0.0    0.0    0.0   0.00   0.00   0.00   0.00    0.0       0       0      0      0     0.      0     0.    0.0    0.0     0.0    0.0
 1997 164    16    15      0    0.0     0.0       0       0      0    0.0    0.0    0.0    0.0   0.00   0.00   0.00   0.00    0.0       0       0      0      0     0.      0     0.    0.0    0.0     0.0    0.0
 1997 165    17    16      0    0.0     0.0       0       0      0    0.0    0.0    0.0    0.0   0.00   0.00   0.00   0.00    0.0       0       0      0      0     0.      0     0.    0.0    0.0     0.0    0.0
 1997 166    18    17      0    0.0     0.0       0       0      0    0.0    0.0    0.0    0.0   0.00   0.00   0.00   0.00    0.0       0       0      0      0     0.      0     0.    0.0    0.0     0.0    0.0
 1997 167    19    18      0    0.0     0.0       0       0      0    0.0    0.0    0.0    0.0   0.00   0.00   0.00   0.00    0.0       0       0      0      0     0.      0     0.    0.0    0.0     0.0    0.0
 1997 168    20    19      0    0.0     0.0       0       0      0    0.0    0.0    0.0    0.0   0.00   0.00   0.00   0.00    0.0       0       0      0      0     0.      0     0.    0.0    0.0     0.0    0.0
 1997 169    21    20      0    0.0     0.0       0       0      0    0.0    0.0    0.0    0.0   0.00   0.00   0.00   0.00    0.0       0       0      0      0     0.      0     0.    0.0    0.0     0.0    0.0
 1997 170    22    21      0    0.0     0.0       0       0      0    0.0    0.0    0.0    0.0   0.00   0.00   0.00   0.00    0.0       0       0      0      0     0.      0     0.    0.0    0.0     0.0    0.0
 1997 171    23    22      0    0.0     0.0       0       0      0    0.0    0.0    0.0    0.0   0.00   0.00   0.00   0.00    0.0       0       0      0      0     0.      0     0.    0.0    0.0     0.0    0.0
 1997 172    24    23      0    0.0     0.0       0       0      0    0.0    0.0    0.0    0.0   0.00   0.00   0.00   0.00    0.0       0       0      0      0     0.      0     0.    0.0    0.0     0.0    0.0
 1997 173    25    24      0    0.0     0.0       0       0      0    0.0    0.0    0.0    0.0   0.00   0.00   0.00   0.00    0.0       0       0      0      0     0.      0     0.    0.0    0.0     0.0    0.0
 1997 174    26    25      0    0.0     0.0       0       0      0    0.0    0.0    0.0    0.0   0.00   0.00   0.00   0.00    0.0       0       0      0      0     0.      0     0.    0.0    0.0     0.0    0.0
 1997 175    27    26      0    0.0     0.0       0       0      0    0.0    0.0    0.0    0.0   0.00   0.00   0.00   0.00    0.0       0       0      0      0     0.      0     0.    0.0    0.0     0.0    0.0
 1997 176    28    27      0    0.0     0.0       0       0      0    0.0    0.0    0.0    0.0   0.00   0.00   0.00   0.00    0.0       0       0      0      0     0.      0     0.    0.0    0.0     0.0    0.0
 1997 177    29    28      0    0.0     0.0       0       0      0    0.0    0.0    0.0    0.0   0.00   0.00   0.00   0.00    0.0       0       0      0      0     0.      0     0.    0.0    0.0     0.0    0.0
 1997 178    30    29      0    0.0     0.0       0       0      0    0.0    0.0    0.0    0.0   0.00   0.00   0.00   0.00    0.0       0       0      0      0     0.      0     0.    0.0    0.0     0.0    0.0
 1997 179    31    30      0    0.0     0.0       0       0      0    0.0    0.0    0.0    0.0   0.00   0.00   0.00   0.00    0.0       0       0      0      0     0.      0     0.    0.0    0.0     0.0    0.0
 1997 180    32    31      0    0.0     0.0       0       0      0    0.0    0.0    0.0    0.0   0.00   0.00   0.00   0.00    0.0       0       0      0      0     0.      0     0.    0.0    0.0     0.0    0.0
 1997 181    33    32      0    0.0     0.0       0       0      0    0.0    0.0    0.0    0.0   0.00   0.00   0.00   0.00    0.0       0       0      0      0     0.      0     0.    0.0    0.0     0.0    0.0
 1997 182    34    33      0    0.0     0.0       0       0      0    0.0    0.0    0.0    0.0   0.00   0.00   0.00   0.00    0.0       0       0      0      0     0.      0     0.    0.0    0.0     0.0    0.0
 1997 183    35    34      0    0.0     0.0       0       0      0    0.0    0.0    0.0    0.0   0.00   0.00   0.00   0.00    0.0       0       0      0      0     0.      0     0.    0.0    0.0     0.0    0.0
 1997 184    36    35      0    0.0     0.0       0       0      0    0.0    0.0    0.0    0.0   0.00   0.00   0.00   0.00    0.0       0       0      0      0     0.      0     0.    0.0    0.0     0.0    0.0
 1997 185    37    36      0    0.0     0.0       0       0      0    0.0    0.0    0.0    0.0   0.00   0.00   0.00   0.00    0.0       0       0      0      0     0.      0     0.    0.0    0.0     0.0    0.0
 1997 186    38    37      0    0.0     0.0       0       0      0    0.0    0.0    0.0    0.0   0.00   0.00   0.00   0.00    0.0       0       0      0      0     0.      0     0.    0.0    0.0     0.0    0.0
 1997 187    39    38      0    0.0     0.0       0       0      0    0.0    0.0    0.0    0.0   0.00   0.00   0.00   0.00    0.0       0       0      0      0     0.      0     0.    0.0    0.0     0.0    0.0
 1997 188    40    39      0    0.0     0.0       0       0      0    0.0    0.0    0.0    0.0   0.00   0.00   0.00   0.00    0.0       0       0      0      0     0.      0     0.    0.0    0.0     0.0    0.0
 1997 189    41    40      0    0.0     0.0       0       0      0    0.0    0.0    0.0    0.0   0.00   0.00   0.00   0.00    0.0       0       0      0      0     0.      0     0.    0.0    0.0     0.0    0.0
 1997 190    42    41      0    0.0     0.0       0       0      0    0.0    0.0    0.0    0.0   0.00   0.00   0.00   0.00    0.0       0       0      0      0     0.      0     0.    0.0    0.0     0.0    0.0
 1997 191    43    42      0    0.0     0.0       0       0      0    0.0    0.0    0.0    0.0   0.00   0.00   0.00   0.00    0.0       0       0      0      0     0.      0     0.    0.0    0.0     0.0    0.0
 1997 192    44    43      0    0.0     0.0       0       0      0    0.0    0.0    0.0    0.0   0.00   0.00   0.00   0.00    0.0       0       0      0      0     0.      0     0.    0.0    0.0     0.0    0.0
 1997 193    45    44      0    0.0     0.0       0       0      0    0.0    0.0    0.0    0.0   0.00   0.00   0.00   0.00    0.0       0       0      0      0     0.      0     0.    0.0    0.0     0.0    0.0
 1997 194    46    45      0    0.0     0.0       0       0      0    0.0    0.0    0.0    0.0   0.00   0.00   0.00   0.00    0.0       0       0      0      0     0.      0     0.    0.0    0.0     0.0    0.0
 1997 195    47    46      0    0.0     0.0       0       0      0    0.0    0.0    0.0    0.0   0.00   0.00   0.00   0.00    0.0       0       0      0      0     0.      0     0.    0.0    0.0     0.0    0.0
 1997 196    48    47      0    0.0     0.0       0       0      0    0.0    0.0    0.0    0.0   0.00   0.00   0.00   0.00    0.0       0       0      0      0     0.      0     0.    0.0    0.0     0.0    0.0
 1997 197    49    48      0    0.0     0.0       0       0      0    0.0    0.0    0.0    0.0   0.00   0.00   0.00   0.00    0.0       0       0      0      0     0.      0     0.    0.0    0.0     0.0    0.0
 1997 198    50    49      0    0.0     0.0       0       0      0    0.0    0.0    0.0    0.0   0.00   0.00   0.00   0.00    0.0       0       0      0      0     0.      0     0.    0.0    0.0     0.0    0.0
 1997 199    51    50      0    0.0     0.0       0       0      0    0.0    0.0    0.0    0.0   0.00   0.00   0.00   0.00    0.0       0       0      0      0     0.      0     0.    0.0    0.0     0.0    0.0
 1997 200    52    51      0    0.0     0.0       0       0      0    0.0    0.0    0.0    0.0   0.00   0.00   0.00   0.00    0.0       0       0      0      0     0.      0     0.    0.0    0.0     0.0    0.0
 1997 201    53    52      0    0.0     0.0       0       0      0    0.0    0.0    0.0    0.0   0.00   0.00   0.00   0.00    0.0       0       0      0      0     0.      0     0.    0.0    0.0     0.0    0.0
 1997 202    54    53      0    0.0     0.0       0       0      0    0.0    0.0    0.0    0.0   0.00   0.00   0.00   0.00    0.0       0       0      0      0     0.      0     0.    0.0    0.0     0.0    0.0
 1997 203    55    54      0    0.0     0.0       0       0      0    0.0    0.0    0.0    0.0   0.00   0.00   0.00   0.00    0.0       0       0      0      0     0.      0     0.    0.0    0.0     0.0    0.0
 1997 204    56    55      0    0.0     0.0       0       0      0    0.0    0.0    0.0    0.0   0.00   0.00   0.00   0.00    0.0       0       0      0      0     0.      0     0.    0.0    0.0     0.0    0.0
 1997 205    57    56      0    0.0     0.0       0       0      0    0.0    0.0    0.0    0.0   0.00   0.00   0.00   0.00    0.0       0       0      0      0     0.      0     0.    0.0    0.0     0.0    0.0
 1997 206    58    57      0    0.0     0.0       0       0      0    0.0    0.0    0.0    0.0   0.00   0.00   0.00   0.00    0.0       0       0      0      0     0.      0     0.    0.0    0.0     0.0    0.0
 1997 207    59    58      0    0.0     0.0       0       0      0    0.0    0.0    0.0    0.0   0.00   0.00   0.00   0.00    0.0       0       0      0      0     0.      0     0.    0.0    0.0     0.0    0.0
 1997 208    60    59      0    0.0     0.0       0       0      0    0.0    0.0    0.0    0.0   0.00   0.00   0.00   0.00    0.0       0       0      0      0     0.      0     0.    0.0    0.0     0.0    0.0
 1997 209    61    60      0    0.0     0.0       0       0      0    0.0    0.0    0.0    0.0   0.00   0.00   0.00   0.00    0.0       0       0      0      0     0.      0     0.    0.0    0.0     0.0    0.0
 1997 210    62    61      0    0.0     0.0       0       0      0    0.0    0.0    0.0    0.0   0.00   0.00   0.00   0.00    0.0       0       0      0      0     0.      0     0.    0.0    0.0     0.0    0.0
 1997 211    63    62      0    0.0     0.0       0       0      0    0.0    0.0    0.0    0.0   0.00   0.00   0.00   0.00    0.0       0       0      0      0     0.      0     0.    0.0    0.0     0.0    0.0
 1997 212    64    63      0    0.0     0.0       0       0      0    0.0    0.0    0.0    0.0   0.00   0.00   0.00   0.00    0.0       0       0      0      0     0.      0     0.    0.0    0.0     0.0    0.0
 1997 213    65    64      0    0.0     0.0       0       0      0    0.0    0.0    0.0    0.0   0.00   0.00   0.00   0.00    0.0       0       0      0      0     0.      0     0.    0.0    0.0     0.0    0.0
 1997 214    66    65      0    0.0     0.0       0       0      0    0.0    0.0    0.0    0.0   0.00   0.00   0.00   0.00    0.0       0       0      0      0     0.      0     0.    0.0    0.0     0.0    0.0
 1997 215    67    66      0    0.0     0.0       0       0      0    0.0    0.0    0.0    0.0   0.00   0.00   0.00   0.00    0.0       0       0      0      0     0.      0     0.    0.0    0.0     0.0    0.0
 1997 216    68    67      0    0.0     0.0       0       0      0    0.0    0.0    0.0    0.0   0.00   0.00   0.00   0.00    0.0       0       0      0      0     0.      0     0.    0.0    0.0     0.0    0.0
 1997 217    69    68      0    0.0     0.0       0       0      0    0.0    0.0    0.0    0.0   0.00   0.00   0.00   0.00    0.0       0       0      0      0     0.      0     0.    0.0    0.0     0.0    0.0
 1997 218    70    69      0    0.0     0.0       0       0      0    0.0    0.0    0.0    0.0   0.00   0.00   0.00   0.00    0.0       0       0      0      0     0.      0     0.    0.0    0.0     0.0    0.0
 1997 219    71    70      0    0.0     0.0       0       0      0    0.0    0.0    0.0    0.0   0.00   0.00   0.00   0.00    0.0       0       0      0      0     0.      0     0.    0.0    0.0     0.0    0.0
 1997 220    72    71      0    0.0     0.0       0       0      0    0.0    0.0    0.0    0.0   0.00   0.00   0.00   0.00    0.0       0       0      0      0     0.      0     0.    0.0    0.0     0.0    0.0
 1997 221    73    72      0    0.0     0.0       0       0      0    0.0    0.0    0.0    0.0   0.00   0.00   0.00   0.00    0.0       0       0      0      0     0.      0     0.    0.0    0.0     0.0    0.0
 1997 222    74    73      0    0.0     0.0       0       0      0    0.0    0.0    0.0    0.0   0.00   0.00   0.00   0.00    0.0       0       0      0      0     0.      0     0.    0.0    0.0     0.0    0.0
 1997 223    75    74      0    0.0     0.0       0       0      0    0.0    0.0    0.0    0.0   0.00   0.00   0.00   0.00    0.0       0       0      0      0     0.      0     0.    0.0    0.0     0.0    0.0
 1997 224    76    75      0    0.0     0.0       0       0      0    0.0    0.0    0.0    0.0   0.00   0.00   0.00   0.00    0.0       0       0      0      0     0.      0     0.    0.0    0.0     0.0    0.0
 1997 225    77    76      0    0.0     0.0       0       0      0    0.0    0.0    0.0    0.0   0.00   0.00   0.00   0.00    0.0       0       0      0      0     0.      0     0.    0.0    0.0     0.0    0.0
 1997 226    78    77      0    0.0     0.0       0       0      0    0.0    0.0    0.0    0.0   0.00   0.00   0.00   0.00    0.0       0       0      0      0     0.      0     0.    0.0    0.0     0.0    0.0
 1997 227    79    78      0    0.0     0.0       0       0      0    0.0    0.0    0.0    0.0   0.00   0.00   0.00   0.00    0.0       0       0      0      0     0.      0     0.    0.0    0.0     0.0    0.0
 1997 228    80    79      0    0.0     0.0       0       0      0    0.0    0.0    0.0    0.0   0.00   0.00   0.00   0.00    0.0       0       0      0      0     0.      0     0.    0.0    0.0     0.0    0.0
 1997 229    81    80      0    0.0     0.0       0       0      0    0.0    0.0    0.0    0.0   0.00   0.00   0.00   0.00    0.0       0       0      0      0     0.      0     0.    0.0    0.0     0.0    0.0
 1997 230    82    81      0    0.0     0.0       0       0      0    0.0    0.0    0.0    0.0   0.00   0.00   0.00   0.00    0.0       0       0      0      0     0.      0     0.    0.0    0.0     0.0    0.0
 1997 231    83    82      0    0.0     0.0       0       0      0    0.0    0.0    0.0    0.0   0.00   0.00   0.00   0.00    0.0       0       0      0      0     0.      0     0.    0.0    0.0     0.0    0.0
 1997 232    84    83      0    0.0     0.0       0       0      0    0.0    0.0    0.0    0.0   0.00   0.00   0.00   0.00    0.0       0       0      0      0     0.      0     0.    0.0    0.0     0.0    0.0
 1997 233    85    84      0    0.0     0.0       0       0      0    0.0    0.0    0.0    0.0   0.00   0.00   0.00   0.00    0.0       0       0      0      0     0.      0     0.    0.0    0.0     0.0    0.0
 1997 234    86    85      0    0.0     0.0       0       0      0    0.0    0.0    0.0    0.0   0.00   0.00   0.00   0.00    0.0       0       0      0      0     0.      0     0.    0.0    0.0     0.0    0.0
 1997 235    87    86      0    0.0     0.0       0       0      0    0.0    0.0    0.0    0.0   0.00   0.00   0.00   0.00    0.0       0       0      0      0     0.      0     0.    0.0    0.0     0.0    0.0
 1997 236    88    87      0    0.0     0.0       0       0      0    0.0    0.0    0.0    0.0   0.00   0.00   0.00   0.00    0.0       0       0      0      0     0.      0     0.    0.0    0.0     0.0    0.0
 1997 237    89    88      0    0.0     0.0       0       0      0    0.0    0.0    0.0    0.0   0.00   0.00   0.00   0.00    0.0       0       0      0      0     0.      0     0.    0.0    0.0     0.0    0.0
 1997 238    90    89      0    0.0     0.0       0       0      0    0.0    0.0    0.0    0.0   0.00   0.00   0.00   0.00    0.0       0       0      0      0     0.      0     0.    0.0    0.0     0.0    0.0
 1997 239    91    90      0    0.0     0.0       0       0      0    0.0    0.0    0.0    0.0   0.00   0.00   0.00   0.00    0.0       0       0      0      0     0.      0     0.    0.0    0.0     0.0    0.0
 1997 240    92    91      0    0.0     0.0       0       0      0    0.0    0.0    0.0    0.0   0.00   0.00   0.00   0.00    0.0       0       0      0      0     0.      0     0.    0.0    0.0     0.0    0.0
 1997 241    93    92      0    0.0     0.0       0       0      0    0.0    0.0    0.0    0.0   0.00   0.00   0.00   0.00    0.0       0       0      0      0     0.      0     0.    0.0    0.0     0.0    0.0
 1997 242    94    93      0    0.0     0.0       0       0      0    0.0    0.0    0.0    0.0   0.00   0.00   0.00   0.00    0.0       0       0      0      0     0.      0     0.    0.0    0.0     0.0    0.0
 1997 243    95    94      0    0.0     0.0       0       0      0    0.0    0.0    0.0    0.0   0.00   0.00   0.00   0.00    0.0       0       0      0      0     0.      0     0.    0.0    0.0     0.0    0.0
 1997 244    96    95      0    0.0     0.0       0       0      0    0.0    0.0    0.0    0.0   0.00   0.00   0.00   0.00    0.0       0       0      0      0     0.      0     0.    0.0    0.0     0.0    0.0
 1997 245    97    96      0    0.0     0.0       0       0      0    0.0    0.0    0.0    0.0   0.00   0.00   0.00   0.00    0.0       0       0      0      0     0.      0     0.    0.0    0.0     0.0    0.0
 1997 246    98    97      0    0.0     0.0       0       0      0    0.0    0.0    0.0    0.0   0.00   0.00   0.00   0.00    0.0       0       0      0      0     0.      0     0.    0.0    0.0     0.0    0.0
 1997 247    99    98      0    0.0     0.0       0       0      0    0.0    0.0    0.0    0.0   0.00   0.00   0.00   0.00    0.0       0       0      0      0     0.      0     0.    0.0    0.0     0.0    0.0
 1997 248   100    99      0    0.0     0.0       0       0      0    0.0    0.0    0.0    0.0   0.00   0.00   0.00   0.00    0.0       0       0      0      0     0.      0     0.    0.0    0.0     0.0    0.0

*DSSAT Cropping System Model Ver. 4.5.1.023 -Stub         OCT 13, 2014; 10:48:17
                                                                                
*RUN   2        : 97 DATE1 F-MIX            CRGRO045 GHNY9701    2              
 MODEL          : CRGRO045 - Peanut                                             
 EXPERIMENT     : GHNY9701 PN able [sltx] with oversized content [1 SALO], only 
 DATA PATH      :                                                               
 TREATMENT  2   : 97 DATE1 F-MIX            CRGRO045                            
  
@YEAR DOY   DAS   DAP    DLA   DLA%    DLAI    DLFM    DSTM   DSDM   DSD#   DSHM   DSH#   DRTM    DRLV  DRLF   DASM   DPO%   CLAI    CLFM    CSTM    CSDM   CSD#  CSHM   CSH#   CRTM   CRLV   CRLF    CASM   CPO% 
 1997 149     1     0      0    0.0     0.0       0       0      0    0.0    0.0    0.0    0.0   0.00   0.00   0.00   0.00    0.0       0       0      0      0     0.      0     0.    0.0    0.0     0.0    0.0
 1997 150     2     1      0    0.0     0.0       0       0      0    0.0    0.0    0.0    0.0   0.00   0.00   0.00   0.00    0.0       0       0      0      0     0.      0     0.    0.0    0.0     0.0    0.0
 1997 151     3     2      0    0.0     0.0       0       0      0    0.0    0.0    0.0    0.0   0.00   0.00   0.00   0.00    0.0       0       0      0      0     0.      0     0.    0.0    0.0     0.0    0.0
 1997 152     4     3      0    0.0     0.0       0       0      0    0.0    0.0    0.0    0.0   0.00   0.00   0.00   0.00    0.0       0       0      0      0     0.      0     0.    0.0    0.0     0.0    0.0
 1997 153     5     4      0    0.0     0.0       0       0      0    0.0    0.0    0.0    0.0   0.00   0.00   0.00   0.00    0.0       0       0      0      0     0.      0     0.    0.0    0.0     0.0    0.0
 1997 154     6     5      0    0.0     0.0       0       0      0    0.0    0.0    0.0    0.0   0.00   0.00   0.00   0.00    0.0       0       0      0      0     0.      0     0.    0.0    0.0     0.0    0.0
 1997 155     7     6      0    0.0     0.0       0       0      0    0.0    0.0    0.0    0.0   0.00   0.00   0.00   0.00    0.0       0       0      0      0     0.      0     0.    0.0    0.0     0.0    0.0
 1997 156     8     7      0    0.0     0.0       0       0      0    0.0    0.0    0.0    0.0   0.00   0.00   0.00   0.00    0.0       0       0      0      0     0.      0     0.    0.0    0.0     0.0    0.0
 1997 157     9     8      0    0.0     0.0       0       0      0    0.0    0.0    0.0    0.0   0.00   0.00   0.00   0.00    0.0       0       0      0      0     0.      0     0.    0.0    0.0     0.0    0.0
 1997 158    10     9      0    0.0     0.0       0       0      0    0.0    0.0    0.0    0.0   0.00   0.00   0.00   0.00    0.0       0       0      0      0     0.      0     0.    0.0    0.0     0.0    0.0
 1997 159    11    10      0    0.0     0.0       0       0      0    0.0    0.0    0.0    0.0   0.00   0.00   0.00   0.00    0.0       0       0      0      0     0.      0     0.    0.0    0.0     0.0    0.0
 1997 160    12    11      0    0.0     0.0       0       0      0    0.0    0.0    0.0    0.0   0.00   0.00   0.00   0.00    0.0       0       0      0      0     0.      0     0.    0.0    0.0     0.0    0.0
 1997 161    13    12      0    0.0     0.0       0       0      0    0.0    0.0    0.0    0.0   0.00   0.00   0.00   0.00    0.0       0       0      0      0     0.      0     0.    0.0    0.0     0.0    0.0
 1997 162    14    13      0    0.0     0.0       0       0      0    0.0    0.0    0.0    0.0   0.00   0.00   0.00   0.00    0.0       0       0      0      0     0.      0     0.    0.0    0.0     0.0    0.0
 1997 163    15    14      0    0.0     0.0       0       0      0    0.0    0.0    0.0    0.0   0.00   0.00   0.00   0.00    0.0       0       0      0      0     0.      0     0.    0.0    0.0     0.0    0.0
 1997 164    16    15      0    0.0     0.0       0       0      0    0.0    0.0    0.0    0.0   0.00   0.00   0.00   0.00    0.0       0       0      0      0     0.      0     0.    0.0    0.0     0.0    0.0
 1997 165    17    16      0    0.0     0.0       0       0      0    0.0    0.0    0.0    0.0   0.00   0.00   0.00   0.00    0.0       0       0      0      0     0.      0     0.    0.0    0.0     0.0    0.0
 1997 166    18    17      0    0.0     0.0       0       0      0    0.0    0.0    0.0    0.0   0.00   0.00   0.00   0.00    0.0       0       0      0      0     0.      0     0.    0.0    0.0     0.0    0.0
 1997 167    19    18      0    0.0     0.0       0       0      0    0.0    0.0    0.0    0.0   0.00   0.00   0.00   0.00    0.0       0       0      0      0     0.      0     0.    0.0    0.0     0.0    0.0
 1997 168    20    19      0    0.0     0.0       0       0      0    0.0    0.0    0.0    0.0   0.00   0.00   0.00   0.00    0.0       0       0      0      0     0.      0     0.    0.0    0.0     0.0    0.0
 1997 169    21    20      0    0.0     0.0       0       0      0    0.0    0.0    0.0    0.0   0.00   0.00   0.00   0.00    0.0       0       0      0      0     0.      0     0.    0.0    0.0     0.0    0.0
 1997 170    22    21      0    0.0     0.0       0       0      0    0.0    0.0    0.0    0.0   0.00   0.00   0.00   0.00    0.0       0       0      0      0     0.      0     0.    0.0    0.0     0.0    0.0
 1997 171    23    22      0    0.0     0.0       0       0      0    0.0    0.0    0.0    0.0   0.00   0.00   0.00   0.00    0.0       0       0      0      0     0.      0     0.    0.0    0.0     0.0    0.0
 1997 172    24    23      0    0.0     0.0       0       0      0    0.0    0.0    0.0    0.0   0.00   0.00   0.00   0.00    0.0       0       0      0      0     0.      0     0.    0.0    0.0     0.0    0.0
 1997 173    25    24      0    0.0     0.0       0       0      0    0.0    0.0    0.0    0.0   0.00   0.00   0.00   0.00    0.0       0       0      0      0     0.      0     0.    0.0    0.0     0.0    0.0
 1997 174    26    25      0    0.0     0.0       0       0      0    0.0    0.0    0.0    0.0   0.00   0.00   0.00   0.00    0.0       0       0      0      0     0.      0     0.    0.0    0.0     0.0    0.0
 1997 175    27    26      0    0.0     0.0       0       0      0    0.0    0.0    0.0    0.0   0.00   0.00   0.00   0.00    0.0       0       0      0      0     0.      0     0.    0.0    0.0     0.0    0.0
 1997 176    28    27      0    0.0     0.0       0       0      0    0.0    0.0    0.0    0.0   0.00   0.00   0.00   0.00    0.0       0       0      0      0     0.      0     0.    0.0    0.0     0.0    0.0
 1997 177    29    28      0    0.0     0.0       0       0      0    0.0    0.0    0.0    0.0   0.00   0.00   0.00   0.00    0.0       0       0      0      0     0.      0     0.    0.0    0.0     0.0    0.0
 1997 178    30    29      0    0.0     0.0       0       0      0    0.0    0.0    0.0    0.0   0.00   0.00   0.00   0.00    0.0       0       0      0      0     0.      0     0.    0.0    0.0     0.0    0.0
 1997 179    31    30      0    0.0     0.0       0       0      0    0.0    0.0    0.0    0.0   0.00   0.00   0.00   0.00    0.0       0       0      0      0     0.      0     0.    0.0    0.0     0.0    0.0
 1997 180    32    31      0    0.0     0.0       0       0      0    0.0    0.0    0.0    0.0   0.00   0.00   0.00   0.00    0.0       0       0      0      0     0.      0     0.    0.0    0.0     0.0    0.0
 1997 181    33    32      0    0.0     0.0       0       0      0    0.0    0.0    0.0    0.0   0.00   0.00   0.00   0.00    0.0       0       0      0      0     0.      0     0.    0.0    0.0     0.0    0.0
 1997 182    34    33      0    0.0     0.0       0       0      0    0.0    0.0    0.0    0.0   0.00   0.00   0.00   0.00    0.0       0       0      0      0     0.      0     0.    0.0    0.0     0.0    0.0
 1997 183    35    34      0    0.0     0.0       0       0      0    0.0    0.0    0.0    0.0   0.00   0.00   0.00   0.00    0.0       0       0      0      0     0.      0     0.    0.0    0.0     0.0    0.0
 1997 184    36    35      0    0.0     0.0       0       0      0    0.0    0.0    0.0    0.0   0.00   0.00   0.00   0.00    0.0       0       0      0      0     0.      0     0.    0.0    0.0     0.0    0.0
 1997 185    37    36      0    0.0     0.0       0       0      0    0.0    0.0    0.0    0.0   0.00   0.00   0.00   0.00    0.0       0       0      0      0     0.      0     0.    0.0    0.0     0.0    0.0
 1997 186    38    37      0    0.0     0.0       0       0      0    0.0    0.0    0.0    0.0   0.00   0.00   0.00   0.00    0.0       0       0      0      0     0.      0     0.    0.0    0.0     0.0    0.0
 1997 187    39    38      0    0.0     0.0       0       0      0    0.0    0.0    0.0    0.0   0.00   0.00   0.00   0.00    0.0       0       0      0      0     0.      0     0.    0.0    0.0     0.0    0.0
 1997 188    40    39      0    0.0     0.0       0       0      0    0.0    0.0    0.0    0.0   0.00   0.00   0.00   0.00    0.0       0       0      0      0     0.      0     0.    0.0    0.0     0.0    0.0
 1997 189    41    40      0    0.0     0.0       0       0      0    0.0    0.0    0.0    0.0   0.00   0.00   0.00   0.00    0.0       0       0      0      0     0.      0     0.    0.0    0.0     0.0    0.0
 1997 190    42    41      0    0.0     0.0       0       0      0    0.0    0.0    0.0    0.0   0.00   0.00   0.00   0.00    0.0       0       0      0      0     0.      0     0.    0.0    0.0     0.0    0.0
 1997 191    43    42      0    0.0     0.0       0       0      0    0.0    0.0    0.0    0.0   0.00   0.00   0.00   0.00    0.0       0       0      0      0     0.      0     0.    0.0    0.0     0.0    0.0
 1997 192    44    43      0    0.0     0.0       0       0      0    0.0    0.0    0.0    0.0   0.00   0.00   0.00   0.00    0.0       0       0      0      0     0.      0     0.    0.0    0.0     0.0    0.0
 1997 193    45    44      0    0.0     0.0       0       0      0    0.0    0.0    0.0    0.0   0.00   0.00   0.00   0.00    0.0       0       0      0      0     0.      0     0.    0.0    0.0     0.0    0.0
 1997 194    46    45      0    0.0     0.0       0       0      0    0.0    0.0    0.0    0.0   0.00   0.00   0.00   0.00    0.0       0       0      0      0     0.      0     0.    0.0    0.0     0.0    0.0
 1997 195    47    46      0    0.0     0.0       0       0      0    0.0    0.0    0.0    0.0   0.00   0.00   0.00   0.00    0.0       0       0      0      0     0.      0     0.    0.0    0.0     0.0    0.0
 1997 196    48    47      0    0.0     0.0       0       0      0    0.0    0.0    0.0    0.0   0.00   0.00   0.00   0.00    0.0       0       0      0      0     0.      0     0.    0.0    0.0     0.0    0.0
 1997 197    49    48      0    0.0     0.0       0       0      0    0.0    0.0    0.0    0.0   0.00   0.00   0.00   0.00    0.0       0       0      0      0     0.      0     0.    0.0    0.0     0.0    0.0
 1997 198    50    49      0    0.0     0.0       0       0      0    0.0    0.0    0.0    0.0   0.00   0.00   0.00   0.00    0.0       0       0      0      0     0.      0     0.    0.0    0.0     0.0    0.0
 1997 199    51    50      0    0.0     0.0       0       0      0    0.0    0.0    0.0    0.0   0.00   0.00   0.00   0.00    0.0       0       0      0      0     0.      0     0.    0.0    0.0     0.0    0.0
 1997 200    52    51      0    0.0     0.0       0       0      0    0.0    0.0    0.0    0.0   0.00   0.00   0.00   0.00    0.0       0       0      0      0     0.      0     0.    0.0    0.0     0.0    0.0
 1997 201    53    52      0    0.0     0.0       0       0      0    0.0    0.0    0.0    0.0   0.00   0.00   0.00   0.00    0.0       0       0      0      0     0.      0     0.    0.0    0.0     0.0    0.0
 1997 202    54    53      0    0.0     0.0       0       0      0    0.0    0.0    0.0    0.0   0.00   0.00   0.00   0.00    0.0       0       0      0      0     0.      0     0.    0.0    0.0     0.0    0.0
 1997 203    55    54      0    0.0     0.0       0       0      0    0.0    0.0    0.0    0.0   0.00   0.00   0.00   0.00    0.0       0       0      0      0     0.      0     0.    0.0    0.0     0.0    0.0
 1997 204    56    55      0    0.0     0.0       0       0      0    0.0    0.0    0.0    0.0   0.00   0.00   0.00   0.00    0.0       0       0      0      0     0.      0     0.    0.0    0.0     0.0    0.0
 1997 205    57    56      0    0.0     0.0       0       0      0    0.0    0.0    0.0    0.0   0.00   0.00   0.00   0.00    0.0       0       0      0      0     0.      0     0.    0.0    0.0     0.0    0.0
 1997 206    58    57      0    0.0     0.0       0       0      0    0.0    0.0    0.0    0.0   0.00   0.00   0.00   0.00    0.0       0       0      0      0     0.      0     0.    0.0    0.0     0.0    0.0
 1997 207    59    58      0    0.0     0.0       0       0      0    0.0    0.0    0.0    0.0   0.00   0.00   0.00   0.00    0.0       0       0      0      0     0.      0     0.    0.0    0.0     0.0    0.0
 1997 208    60    59      0    0.0     0.0       0       0      0    0.0    0.0    0.0    0.0   0.00   0.00   0.00   0.00    0.0       0       0      0      0     0.      0     0.    0.0    0.0     0.0    0.0
 1997 209    61    60      0    0.0     0.0       0       0      0    0.0    0.0    0.0    0.0   0.00   0.00   0.00   0.00    0.0       0       0      0      0     0.      0     0.    0.0    0.0     0.0    0.0
 1997 210    62    61      0    0.0     0.0       0       0      0    0.0    0.0    0.0    0.0   0.00   0.00   0.00   0.00    0.0       0       0      0      0     0.      0     0.    0.0    0.0     0.0    0.0
 1997 211    63    62      0    0.0     0.0       0       0      0    0.0    0.0    0.0    0.0   0.00   0.00   0.00   0.00    0.0       0       0      0      0     0.      0     0.    0.0    0.0     0.0    0.0
 1997 212    64    63      0    0.0     0.0       0       0      0    0.0    0.0    0.0    0.0   0.00   0.00   0.00   0.00    0.0       0       0      0      0     0.      0     0.    0.0    0.0     0.0    0.0
 1997 213    65    64      0    0.0     0.0       0       0      0    0.0    0.0    0.0    0.0   0.00   0.00   0.00   0.00    0.0       0       0      0      0     0.      0     0.    0.0    0.0     0.0    0.0
 1997 214    66    65      0    0.0     0.0       0       0      0    0.0    0.0    0.0    0.0   0.00   0.00   0.00   0.00    0.0       0       0      0      0     0.      0     0.    0.0    0.0     0.0    0.0
 1997 215    67    66      0    0.0     0.0       0       0      0    0.0    0.0    0.0    0.0   0.00   0.00   0.00   0.00    0.0       0       0      0      0     0.      0     0.    0.0    0.0     0.0    0.0
 1997 216    68    67      0    0.0     0.0       0       0      0    0.0    0.0    0.0    0.0   0.00   0.00   0.00   0.00    0.0       0       0      0      0     0.      0     0.    0.0    0.0     0.0    0.0
 1997 217    69    68      0    0.0     0.0       0       0      0    0.0    0.0    0.0    0.0   0.00   0.00   0.00   0.00    0.0       0       0      0      0     0.      0     0.    0.0    0.0     0.0    0.0
 1997 218    70    69      0    0.0     0.0       0       0      0    0.0    0.0    0.0    0.0   0.00   0.00   0.00   0.00    0.0       0       0      0      0     0.      0     0.    0.0    0.0     0.0    0.0
 1997 219    71    70      0    0.0     0.0       0       0      0    0.0    0.0    0.0    0.0   0.00   0.00   0.00   0.00    0.0       0       0      0      0     0.      0     0.    0.0    0.0     0.0    0.0
 1997 220    72    71      0    0.0     0.0       0       0      0    0.0    0.0    0.0    0.0   0.00   0.00   0.00   0.00    0.0       0       0      0      0     0.      0     0.    0.0    0.0     0.0    0.0
 1997 221    73    72      0    0.0     0.0       0       0      0    0.0    0.0    0.0    0.0   0.00   0.00   0.00   0.00    0.0       0       0      0      0     0.      0     0.    0.0    0.0     0.0    0.0
 1997 222    74    73      0    0.0     0.0       0       0      0    0.0    0.0    0.0    0.0   0.00   0.00   0.00   0.00    0.0       0       0      0      0     0.      0     0.    0.0    0.0     0.0    0.0
 1997 223    75    74      0    0.0     0.0       0       0      0    0.0    0.0    0.0    0.0   0.00   0.00   0.00   0.00    0.0       0       0      0      0     0.      0     0.    0.0    0.0     0.0    0.0
 1997 224    76    75      0    0.0     0.0       0       0      0    0.0    0.0    0.0    0.0   0.00   0.00   0.00   0.00    0.0       0       0      0      0     0.      0     0.    0.0    0.0     0.0    0.0
 1997 225    77    76      0    0.0     0.0       0       0      0    0.0    0.0    0.0    0.0   0.00   0.00   0.00   0.00    0.0       0       0      0      0     0.      0     0.    0.0    0.0     0.0    0.0
 1997 226    78    77      0    0.0     0.0       0       0      0    0.0    0.0    0.0    0.0   0.00   0.00   0.00   0.00    0.0       0       0      0      0     0.      0     0.    0.0    0.0     0.0    0.0
 1997 227    79    78      0    0.0     0.0       0       0      0    0.0    0.0    0.0    0.0   0.00   0.00   0.00   0.00    0.0       0       0      0      0     0.      0     0.    0.0    0.0     0.0    0.0
 1997 228    80    79      0    0.0     0.0       0       0      0    0.0    0.0    0.0    0.0   0.00   0.00   0.00   0.00    0.0       0       0      0      0     0.      0     0.    0.0    0.0     0.0    0.0
 1997 229    81    80      0    0.0     0.0       0       0      0    0.0    0.0    0.0    0.0   0.00   0.00   0.00   0.00    0.0       0       0      0      0     0.      0     0.    0.0    0.0     0.0    0.0
 1997 230    82    81      0    0.0     0.0       0       0      0    0.0    0.0    0.0    0.0   0.00   0.00   0.00   0.00    0.0       0       0      0      0     0.      0     0.    0.0    0.0     0.0    0.0
 1997 231    83    82      0    0.0     0.0       0       0      0    0.0    0.0    0.0    0.0   0.00   0.00   0.00   0.00    0.0       0       0      0      0     0.      0     0.    0.0    0.0     0.0    0.0
 1997 232    84    83      0    0.0     0.0       0       0      0    0.0    0.0    0.0    0.0   0.00   0.00   0.00   0.00    0.0       0       0      0      0     0.      0     0.    0.0    0.0     0.0    0.0
 1997 233    85    84      0    0.0     0.0       0       0      0    0.0    0.0    0.0    0.0   0.00   0.00   0.00   0.00    0.0       0       0      0      0     0.      0     0.    0.0    0.0     0.0    0.0
 1997 234    86    85      0    0.0     0.0       0       0      0    0.0    0.0    0.0    0.0   0.00   0.00   0.00   0.00    0.0       0       0      0      0     0.      0     0.    0.0    0.0     0.0    0.0
 1997 235    87    86      0    0.0     0.0       0       0      0    0.0    0.0    0.0    0.0   0.00   0.00   0.00   0.00    0.0       0       0      0      0     0.      0     0.    0.0    0.0     0.0    0.0
 1997 236    88    87      0    0.0     0.0       0       0      0    0.0    0.0    0.0    0.0   0.00   0.00   0.00   0.00    0.0       0       0      0      0     0.      0     0.    0.0    0.0     0.0    0.0
 1997 237    89    88      0    0.0     0.0       0       0      0    0.0    0.0    0.0    0.0   0.00   0.00   0.00   0.00    0.0       0       0      0      0     0.      0     0.    0.0    0.0     0.0    0.0
 1997 238    90    89      0    0.0     0.0       0       0      0    0.0    0.0    0.0    0.0   0.00   0.00   0.00   0.00    0.0       0       0      0      0     0.      0     0.    0.0    0.0     0.0    0.0
 1997 239    91    90      0    0.0     0.0       0       0      0    0.0    0.0    0.0    0.0   0.00   0.00   0.00   0.00    0.0       0       0      0      0     0.      0     0.    0.0    0.0     0.0    0.0
 1997 240    92    91      0    0.0     0.0       0       0      0    0.0    0.0    0.0    0.0   0.00   0.00   0.00   0.00    0.0       0       0      0      0     0.      0     0.    0.0    0.0     0.0    0.0
 1997 241    93    92      0    0.0     0.0       0       0      0    0.0    0.0    0.0    0.0   0.00   0.00   0.00   0.00    0.0       0       0      0      0     0.      0     0.    0.0    0.0     0.0    0.0
 1997 242    94    93      0    0.0     0.0       0       0      0    0.0    0.0    0.0    0.0   0.00   0.00   0.00   0.00    0.0       0       0      0      0     0.      0     0.    0.0    0.0     0.0    0.0
 1997 243    95    94      0    0.0     0.0       0       0      0    0.0    0.0    0.0    0.0   0.00   0.00   0.00   0.00    0.0       0       0      0      0     0.      0     0.    0.0    0.0     0.0    0.0
 1997 244    96    95      0    0.0     0.0       0       0      0    0.0    0.0    0.0    0.0   0.00   0.00   0.00   0.00    0.0       0       0      0      0     0.      0     0.    0.0    0.0     0.0    0.0
 1997 245    97    96      0    0.0     0.0       0       0      0    0.0    0.0    0.0    0.0   0.00   0.00   0.00   0.00    0.0       0       0      0      0     0.      0     0.    0.0    0.0     0.0    0.0
 1997 246    98    97      0    0.0     0.0       0       0      0    0.0    0.0    0.0    0.0   0.00   0.00   0.00   0.00    0.0       0       0      0      0     0.      0     0.    0.0    0.0     0.0    0.0
 1997 247    99    98      0    0.0     0.0       0       0      0    0.0    0.0    0.0    0.0   0.00   0.00   0.00   0.00    0.0       0       0      0      0     0.      0     0.    0.0    0.0     0.0    0.0
 1997 248   100    99      0    0.0     0.0       0       0      0    0.0    0.0    0.0    0.0   0.00   0.00   0.00   0.00    0.0       0       0      0      0     0.      0     0.    0.0    0.0     0.0    0.0
 1997 249   101   100      0    0.0     0.0       0       0      0    0.0    0.0    0.0    0.0   0.00   0.00   0.00   0.00    0.0       0       0      0      0     0.      0     0.    0.0    0.0     0.0    0.0
 1997 250   102   101      0    0.0     0.0       0       0      0    0.0    0.0    0.0    0.0   0.00   0.00   0.00   0.00    0.0       0       0      0      0     0.      0     0.    0.0    0.0     0.0    0.0
 1997 251   103   102      0    0.0     0.0       0       0      0    0.0    0.0    0.0    0.0   0.00   0.00   0.00   0.00    0.0       0       0      0      0     0.      0     0.    0.0    0.0     0.0    0.0
 1997 252   104   103      0    0.0     0.0       0       0      0    0.0    0.0    0.0    0.0   0.00   0.00   0.00   0.00    0.0       0       0      0      0     0.      0     0.    0.0    0.0     0.0    0.0
 1997 253   105   104      0    0.0     0.0       0       0      0    0.0    0.0    0.0    0.0   0.00   0.00   0.00   0.00    0.0       0       0      0      0     0.      0     0.    0.0    0.0     0.0    0.0
 1997 254   106   105      0    0.0     0.0       0       0      0    0.0    0.0    0.0    0.0   0.00   0.00   0.00   0.00    0.0       0       0      0      0     0.      0     0.    0.0    0.0     0.0    0.0
 1997 255   107   106      0    0.0     0.0       0       0      0    0.0    0.0    0.0    0.0   0.00   0.00   0.00   0.00    0.0       0       0      0      0     0.      0     0.    0.0    0.0     0.0    0.0
 1997 256   108   107      0    0.0     0.0       0       0      0    0.0    0.0    0.0    0.0   0.00   0.00   0.00   0.00    0.0       0       0      0      0     0.      0     0.    0.0    0.0     0.0    0.0
 1997 257   109   108      0    0.0     0.0       0       0      0    0.0    0.0    0.0    0.0   0.00   0.00   0.00   0.00    0.0       0       0      0      0     0.      0     0.    0.0    0.0     0.0    0.0
 1997 258   110   109      0    0.0     0.0       0       0      0    0.0    0.0    0.0    0.0   0.00   0.00   0.00   0.00    0.0       0       0      0      0     0.      0     0.    0.0    0.0     0.0    0.0
 1997 259   111   110      0    0.0     0.0       0       0      0    0.0    0.0    0.0    0.0   0.00   0.00   0.00   0.00    0.0       0       0      0      0     0.      0     0.    0.0    0.0     0.0    0.0
 1997 260   112   111      0    0.0     0.0       0       0      0    0.0    0.0    0.0    0.0   0.00   0.00   0.00   0.00    0.0       0       0      0      0     0.      0     0.    0.0    0.0     0.0    0.0
 1997 261   113   112      0    0.0     0.0       0       0      0    0.0    0.0    0.0    0.0   0.00   0.00   0.00   0.00    0.0       0       0      0      0     0.      0     0.    0.0    0.0     0.0    0.0
 1997 262   114   113      0    0.0     0.0       0       0      0    0.0    0.0    0.0    0.0   0.00   0.00   0.00   0.00    0.0       0       0      0      0     0.      0     0.    0.0    0.0     0.0    0.0
 1997 263   115   114      0    0.0     0.0       0       0      0    0.0    0.0    0.0    0.0   0.00   0.00   0.00   0.00    0.0       0       0      0      0     0.      0     0.    0.0    0.0     0.0    0.0
 1997 264   116   115      0    0.0     0.0       0       0      0    0.0    0.0    0.0    0.0   0.00   0.00   0.00   0.00    0.0       0       0      0      0     0.      0     0.    0.0    0.0     0.0    0.0
 1997 265   117   116      0    0.0     0.0       0       0      0    0.0    0.0    0.0    0.0   0.00   0.00   0.00   0.00    0.0       0       0      0      0     0.      0     0.    0.0    0.0     0.0    0.0
 1997 266   118   117      0    0.0     0.0       0       0      0    0.0    0.0    0.0    0.0   0.00   0.00   0.00   0.00    0.0       0       0      0      0     0.      0     0.    0.0    0.0     0.0    0.0
 1997 267   119   118      0    0.0     0.0       0       0      0    0.0    0.0    0.0    0.0   0.00   0.00   0.00   0.00    0.0       0       0      0      0     0.      0     0.    0.0    0.0     0.0    0.0
 1997 268   120   119      0    0.0     0.0       0       0      0    0.0    0.0    0.0    0.0   0.00   0.00   0.00   0.00    0.0       0       0      0      0     0.      0     0.    0.0    0.0     0.0    0.0
 1997 269   121   120      0    0.0     0.0       0       0      0    0.0    0.0    0.0    0.0   0.00   0.00   0.00   0.00    0.0       0       0      0      0     0.      0     0.    0.0    0.0     0.0    0.0
 1997 270   122   121      0    0.0     0.0       0       0      0    0.0    0.0    0.0    0.0   0.00   0.00   0.00   0.00    0.0       0       0      0      0     0.      0     0.    0.0    0.0     0.0    0.0

*DSSAT Cropping System Model Ver. 4.5.1.023 -Stub         OCT 13, 2014; 10:48:17
                                                                                
*RUN   3        : 97 DATE2 CHINESE          CRGRO045 GHNY9701    3              
 MODEL          : CRGRO045 - Peanut                                             
 EXPERIMENT     : GHNY9701 PN able [sltx] with oversized content [1 SALO], only 
 DATA PATH      :                                                               
 TREATMENT  3   : 97 DATE2 CHINESE          CRGRO045                            
  
@YEAR DOY   DAS   DAP    DLA   DLA%    DLAI    DLFM    DSTM   DSDM   DSD#   DSHM   DSH#   DRTM    DRLV  DRLF   DASM   DPO%   CLAI    CLFM    CSTM    CSDM   CSD#  CSHM   CSH#   CRTM   CRLV   CRLF    CASM   CPO% 
 1997 177     1     0      0    0.0     0.0       0       0      0    0.0    0.0    0.0    0.0   0.00   0.00   0.00   0.00    0.0       0       0      0      0     0.      0     0.    0.0    0.0     0.0    0.0
 1997 178     2     1      0    0.0     0.0       0       0      0    0.0    0.0    0.0    0.0   0.00   0.00   0.00   0.00    0.0       0       0      0      0     0.      0     0.    0.0    0.0     0.0    0.0
 1997 179     3     2      0    0.0     0.0       0       0      0    0.0    0.0    0.0    0.0   0.00   0.00   0.00   0.00    0.0       0       0      0      0     0.      0     0.    0.0    0.0     0.0    0.0
 1997 180     4     3      0    0.0     0.0       0       0      0    0.0    0.0    0.0    0.0   0.00   0.00   0.00   0.00    0.0       0       0      0      0     0.      0     0.    0.0    0.0     0.0    0.0
 1997 181     5     4      0    0.0     0.0       0       0      0    0.0    0.0    0.0    0.0   0.00   0.00   0.00   0.00    0.0       0       0      0      0     0.      0     0.    0.0    0.0     0.0    0.0
 1997 182     6     5      0    0.0     0.0       0       0      0    0.0    0.0    0.0    0.0   0.00   0.00   0.00   0.00    0.0       0       0      0      0     0.      0     0.    0.0    0.0     0.0    0.0
 1997 183     7     6      0    0.0     0.0       0       0      0    0.0    0.0    0.0    0.0   0.00   0.00   0.00   0.00    0.0       0       0      0      0     0.      0     0.    0.0    0.0     0.0    0.0
 1997 184     8     7      0    0.0     0.0       0       0      0    0.0    0.0    0.0    0.0   0.00   0.00   0.00   0.00    0.0       0       0      0      0     0.      0     0.    0.0    0.0     0.0    0.0
 1997 185     9     8      0    0.0     0.0       0       0      0    0.0    0.0    0.0    0.0   0.00   0.00   0.00   0.00    0.0       0       0      0      0     0.      0     0.    0.0    0.0     0.0    0.0
 1997 186    10     9      0    0.0     0.0       0       0      0    0.0    0.0    0.0    0.0   0.00   0.00   0.00   0.00    0.0       0       0      0      0     0.      0     0.    0.0    0.0     0.0    0.0
 1997 187    11    10      0    0.0     0.0       0       0      0    0.0    0.0    0.0    0.0   0.00   0.00   0.00   0.00    0.0       0       0      0      0     0.      0     0.    0.0    0.0     0.0    0.0
 1997 188    12    11      0    0.0     0.0       0       0      0    0.0    0.0    0.0    0.0   0.00   0.00   0.00   0.00    0.0       0       0      0      0     0.      0     0.    0.0    0.0     0.0    0.0
 1997 189    13    12      0    0.0     0.0       0       0      0    0.0    0.0    0.0    0.0   0.00   0.00   0.00   0.00    0.0       0       0      0      0     0.      0     0.    0.0    0.0     0.0    0.0
 1997 190    14    13      0    0.0     0.0       0       0      0    0.0    0.0    0.0    0.0   0.00   0.00   0.00   0.00    0.0       0       0      0      0     0.      0     0.    0.0    0.0     0.0    0.0
 1997 191    15    14      0    0.0     0.0       0       0      0    0.0    0.0    0.0    0.0   0.00   0.00   0.00   0.00    0.0       0       0      0      0     0.      0     0.    0.0    0.0     0.0    0.0
 1997 192    16    15      0    0.0     0.0       0       0      0    0.0    0.0    0.0    0.0   0.00   0.00   0.00   0.00    0.0       0       0      0      0     0.      0     0.    0.0    0.0     0.0    0.0
 1997 193    17    16      0    0.0     0.0       0       0      0    0.0    0.0    0.0    0.0   0.00   0.00   0.00   0.00    0.0       0       0      0      0     0.      0     0.    0.0    0.0     0.0    0.0
 1997 194    18    17      0    0.0     0.0       0       0      0    0.0    0.0    0.0    0.0   0.00   0.00   0.00   0.00    0.0       0       0      0      0     0.      0     0.    0.0    0.0     0.0    0.0
 1997 195    19    18      0    0.0     0.0       0       0      0    0.0    0.0    0.0    0.0   0.00   0.00   0.00   0.00    0.0       0       0      0      0     0.      0     0.    0.0    0.0     0.0    0.0
 1997 196    20    19      0    0.0     0.0       0       0      0    0.0    0.0    0.0    0.0   0.00   0.00   0.00   0.00    0.0       0       0      0      0     0.      0     0.    0.0    0.0     0.0    0.0
 1997 197    21    20      0    0.0     0.0       0       0      0    0.0    0.0    0.0    0.0   0.00   0.00   0.00   0.00    0.0       0       0      0      0     0.      0     0.    0.0    0.0     0.0    0.0
 1997 198    22    21      0    0.0     0.0       0       0      0    0.0    0.0    0.0    0.0   0.00   0.00   0.00   0.00    0.0       0       0      0      0     0.      0     0.    0.0    0.0     0.0    0.0
 1997 199    23    22      0    0.0     0.0       0       0      0    0.0    0.0    0.0    0.0   0.00   0.00   0.00   0.00    0.0       0       0      0      0     0.      0     0.    0.0    0.0     0.0    0.0
 1997 200    24    23      0    0.0     0.0       0       0      0    0.0    0.0    0.0    0.0   0.00   0.00   0.00   0.00    0.0       0       0      0      0     0.      0     0.    0.0    0.0     0.0    0.0
 1997 201    25    24      0    0.0     0.0       0       0      0    0.0    0.0    0.0    0.0   0.00   0.00   0.00   0.00    0.0       0       0      0      0     0.      0     0.    0.0    0.0     0.0    0.0
 1997 202    26    25      0    0.0     0.0       0       0      0    0.0    0.0    0.0    0.0   0.00   0.00   0.00   0.00    0.0       0       0      0      0     0.      0     0.    0.0    0.0     0.0    0.0
 1997 203    27    26      0    0.0     0.0       0       0      0    0.0    0.0    0.0    0.0   0.00   0.00   0.00   0.00    0.0       0       0      0      0     0.      0     0.    0.0    0.0     0.0    0.0
 1997 204    28    27      0    0.0     0.0       0       0      0    0.0    0.0    0.0    0.0   0.00   0.00   0.00   0.00    0.0       0       0      0      0     0.      0     0.    0.0    0.0     0.0    0.0
 1997 205    29    28      0    0.0     0.0       0       0      0    0.0    0.0    0.0    0.0   0.00   0.00   0.00   0.00    0.0       0       0      0      0     0.      0     0.    0.0    0.0     0.0    0.0
 1997 206    30    29      0    0.0     0.0       0       0      0    0.0    0.0    0.0    0.0   0.00   0.00   0.00   0.00    0.0       0       0      0      0     0.      0     0.    0.0    0.0     0.0    0.0
 1997 207    31    30      0    0.0     0.0       0       0      0    0.0    0.0    0.0    0.0   0.00   0.00   0.00   0.00    0.0       0       0      0      0     0.      0     0.    0.0    0.0     0.0    0.0
 1997 208    32    31      0    0.0     0.0       0       0      0    0.0    0.0    0.0    0.0   0.00   0.00   0.00   0.00    0.0       0       0      0      0     0.      0     0.    0.0    0.0     0.0    0.0
 1997 209    33    32      0    0.0     0.0       0       0      0    0.0    0.0    0.0    0.0   0.00   0.00   0.00   0.00    0.0       0       0      0      0     0.      0     0.    0.0    0.0     0.0    0.0
 1997 210    34    33      0    0.0     0.0       0       0      0    0.0    0.0    0.0    0.0   0.00   0.00   0.00   0.00    0.0       0       0      0      0     0.      0     0.    0.0    0.0     0.0    0.0
 1997 211    35    34      0    0.0     0.0       0       0      0    0.0    0.0    0.0    0.0   0.00   0.00   0.00   0.00    0.0       0       0      0      0     0.      0     0.    0.0    0.0     0.0    0.0
 1997 212    36    35      0    0.0     0.0       0       0      0    0.0    0.0    0.0    0.0   0.00   0.00   0.00   0.00    0.0       0       0      0      0     0.      0     0.    0.0    0.0     0.0    0.0
 1997 213    37    36      0    0.0     0.0       0       0      0    0.0    0.0    0.0    0.0   0.00   0.00   0.00   0.00    0.0       0       0      0      0     0.      0     0.    0.0    0.0     0.0    0.0
 1997 214    38    37      0    0.0     0.0       0       0      0    0.0    0.0    0.0    0.0   0.00   0.00   0.00   0.00    0.0       0       0      0      0     0.      0     0.    0.0    0.0     0.0    0.0
 1997 215    39    38      0    0.0     0.0       0       0      0    0.0    0.0    0.0    0.0   0.00   0.00   0.00   0.00    0.0       0       0      0      0     0.      0     0.    0.0    0.0     0.0    0.0
 1997 216    40    39      0    0.0     0.0       0       0      0    0.0    0.0    0.0    0.0   0.00   0.00   0.00   0.00    0.0       0       0      0      0     0.      0     0.    0.0    0.0     0.0    0.0
 1997 217    41    40      0    0.0     0.0       0       0      0    0.0    0.0    0.0    0.0   0.00   0.00   0.00   0.00    0.0       0       0      0      0     0.      0     0.    0.0    0.0     0.0    0.0
 1997 218    42    41      0    0.0     0.0       0       0      0    0.0    0.0    0.0    0.0   0.00   0.00   0.00   0.00    0.0       0       0      0      0     0.      0     0.    0.0    0.0     0.0    0.0
 1997 219    43    42      0    0.0     0.0       0       0      0    0.0    0.0    0.0    0.0   0.00   0.00   0.00   0.00    0.0       0       0      0      0     0.      0     0.    0.0    0.0     0.0    0.0
 1997 220    44    43      0    0.0     0.0       0       0      0    0.0    0.0    0.0    0.0   0.00   0.00   0.00   0.00    0.0       0       0      0      0     0.      0     0.    0.0    0.0     0.0    0.0
 1997 221    45    44      0    0.0     0.0       0       0      0    0.0    0.0    0.0    0.0   0.00   0.00   0.00   0.00    0.0       0       0      0      0     0.      0     0.    0.0    0.0     0.0    0.0
 1997 222    46    45      0    0.0     0.0       0       0      0    0.0    0.0    0.0    0.0   0.00   0.00   0.00   0.00    0.0       0       0      0      0     0.      0     0.    0.0    0.0     0.0    0.0
 1997 223    47    46      0    0.0     0.0       0       0      0    0.0    0.0    0.0    0.0   0.00   0.00   0.00   0.00    0.0       0       0      0      0     0.      0     0.    0.0    0.0     0.0    0.0
 1997 224    48    47      0    0.0     0.0       0       0      0    0.0    0.0    0.0    0.0   0.00   0.00   0.00   0.00    0.0       0       0      0      0     0.      0     0.    0.0    0.0     0.0    0.0
 1997 225    49    48      0    0.0     0.0       0       0      0    0.0    0.0    0.0    0.0   0.00   0.00   0.00   0.00    0.0       0       0      0      0     0.      0     0.    0.0    0.0     0.0    0.0
 1997 226    50    49      0    0.0     0.0       0       0      0    0.0    0.0    0.0    0.0   0.00   0.00   0.00   0.00    0.0       0       0      0      0     0.      0     0.    0.0    0.0     0.0    0.0
 1997 227    51    50      0    0.0     0.0       0       0      0    0.0    0.0    0.0    0.0   0.00   0.00   0.00   0.00    0.0       0       0      0      0     0.      0     0.    0.0    0.0     0.0    0.0
 1997 228    52    51      0    0.0     0.0       0       0      0    0.0    0.0    0.0    0.0   0.00   0.00   0.00   0.00    0.0       0       0      0      0     0.      0     0.    0.0    0.0     0.0    0.0
 1997 229    53    52      0    0.0     0.0       0       0      0    0.0    0.0    0.0    0.0   0.00   0.00   0.00   0.00    0.0       0       0      0      0     0.      0     0.    0.0    0.0     0.0    0.0
 1997 230    54    53      0    0.0     0.0       0       0      0    0.0    0.0    0.0    0.0   0.00   0.00   0.00   0.00    0.0       0       0      0      0     0.      0     0.    0.0    0.0     0.0    0.0
 1997 231    55    54      0    0.0     0.0       0       0      0    0.0    0.0    0.0    0.0   0.00   0.00   0.00   0.00    0.0       0       0      0      0     0.      0     0.    0.0    0.0     0.0    0.0
 1997 232    56    55      0    0.0     0.0       0       0      0    0.0    0.0    0.0    0.0   0.00   0.00   0.00   0.00    0.0       0       0      0      0     0.      0     0.    0.0    0.0     0.0    0.0
 1997 233    57    56      0    0.0     0.0       0       0      0    0.0    0.0    0.0    0.0   0.00   0.00   0.00   0.00    0.0       0       0      0      0     0.      0     0.    0.0    0.0     0.0    0.0
 1997 234    58    57      0    0.0     0.0       0       0      0    0.0    0.0    0.0    0.0   0.00   0.00   0.00   0.00    0.0       0       0      0      0     0.      0     0.    0.0    0.0     0.0    0.0
 1997 235    59    58      0    0.0     0.0       0       0      0    0.0    0.0    0.0    0.0   0.00   0.00   0.00   0.00    0.0       0       0      0      0     0.      0     0.    0.0    0.0     0.0    0.0
 1997 236    60    59      0    0.0     0.0       0       0      0    0.0    0.0    0.0    0.0   0.00   0.00   0.00   0.00    0.0       0       0      0      0     0.      0     0.    0.0    0.0     0.0    0.0
 1997 237    61    60      0    0.0     0.0       0       0      0    0.0    0.0    0.0    0.0   0.00   0.00   0.00   0.00    0.0       0       0      0      0     0.      0     0.    0.0    0.0     0.0    0.0
 1997 238    62    61      0    0.0     0.0       0       0      0    0.0    0.0    0.0    0.0   0.00   0.00   0.00   0.00    0.0       0       0      0      0     0.      0     0.    0.0    0.0     0.0    0.0
 1997 239    63    62      0    0.0     0.0       0       0      0    0.0    0.0    0.0    0.0   0.00   0.00   0.00   0.00    0.0       0       0      0      0     0.      0     0.    0.0    0.0     0.0    0.0
 1997 240    64    63      0    0.0     0.0       0       0      0    0.0    0.0    0.0    0.0   0.00   0.00   0.00   0.00    0.0       0       0      0      0     0.      0     0.    0.0    0.0     0.0    0.0
 1997 241    65    64      0    0.0     0.0       0       0      0    0.0    0.0    0.0    0.0   0.00   0.00   0.00   0.00    0.0       0       0      0      0     0.      0     0.    0.0    0.0     0.0    0.0
 1997 242    66    65      0    0.0     0.0       0       0      0    0.0    0.0    0.0    0.0   0.00   0.00   0.00   0.00    0.0       0       0      0      0     0.      0     0.    0.0    0.0     0.0    0.0
 1997 243    67    66      0    0.0     0.0       0       0      0    0.0    0.0    0.0    0.0   0.00   0.00   0.00   0.00    0.0       0       0      0      0     0.      0     0.    0.0    0.0     0.0    0.0
 1997 244    68    67      0    0.0     0.0       0       0      0    0.0    0.0    0.0    0.0   0.00   0.00   0.00   0.00    0.0       0       0      0      0     0.      0     0.    0.0    0.0     0.0    0.0
 1997 245    69    68      0    0.0     0.0       0       0      0    0.0    0.0    0.0    0.0   0.00   0.00   0.00   0.00    0.0       0       0      0      0     0.      0     0.    0.0    0.0     0.0    0.0
 1997 246    70    69      0    0.0     0.0       0       0      0    0.0    0.0    0.0    0.0   0.00   0.00   0.00   0.00    0.0       0       0      0      0     0.      0     0.    0.0    0.0     0.0    0.0
 1997 247    71    70      0    0.0     0.0       0       0      0    0.0    0.0    0.0    0.0   0.00   0.00   0.00   0.00    0.0       0       0      0      0     0.      0     0.    0.0    0.0     0.0    0.0
 1997 248    72    71      0    0.0     0.0       0       0      0    0.0    0.0    0.0    0.0   0.00   0.00   0.00   0.00    0.0       0       0      0      0     0.      0     0.    0.0    0.0     0.0    0.0
 1997 249    73    72      0    0.0     0.0       0       0      0    0.0    0.0    0.0    0.0   0.00   0.00   0.00   0.00    0.0       0       0      0      0     0.      0     0.    0.0    0.0     0.0    0.0
 1997 250    74    73      0    0.0     0.0       0       0      0    0.0    0.0    0.0    0.0   0.00   0.00   0.00   0.00    0.0       0       0      0      0     0.      0     0.    0.0    0.0     0.0    0.0
 1997 251    75    74      0    0.0     0.0       0       0      0    0.0    0.0    0.0    0.0   0.00   0.00   0.00   0.00    0.0       0       0      0      0     0.      0     0.    0.0    0.0     0.0    0.0
 1997 252    76    75      0    0.0     0.0       0       0      0    0.0    0.0    0.0    0.0   0.00   0.00   0.00   0.00    0.0       0       0      0      0     0.      0     0.    0.0    0.0     0.0    0.0
 1997 253    77    76      0    0.0     0.0       0       0      0    0.0    0.0    0.0    0.0   0.00   0.00   0.00   0.00    0.0       0       0      0      0     0.      0     0.    0.0    0.0     0.0    0.0
 1997 254    78    77      0    0.0     0.0       0       0      0    0.0    0.0    0.0    0.0   0.00   0.00   0.00   0.00    0.0       0       0      0      0     0.      0     0.    0.0    0.0     0.0    0.0
 1997 255    79    78      0    0.0     0.0       0       0      0    0.0    0.0    0.0    0.0   0.00   0.00   0.00   0.00    0.0       0       0      0      0     0.      0     0.    0.0    0.0     0.0    0.0
 1997 256    80    79      0    0.0     0.0       0       0      0    0.0    0.0    0.0    0.0   0.00   0.00   0.00   0.00    0.0       0       0      0      0     0.      0     0.    0.0    0.0     0.0    0.0
 1997 257    81    80      0    0.0     0.0       0       0      0    0.0    0.0    0.0    0.0   0.00   0.00   0.00   0.00    0.0       0       0      0      0     0.      0     0.    0.0    0.0     0.0    0.0
 1997 258    82    81      0    0.0     0.0       0       0      0    0.0    0.0    0.0    0.0   0.00   0.00   0.00   0.00    0.0       0       0      0      0     0.      0     0.    0.0    0.0     0.0    0.0
 1997 259    83    82      0    0.0     0.0       0       0      0    0.0    0.0    0.0    0.0   0.00   0.00   0.00   0.00    0.0       0       0      0      0     0.      0     0.    0.0    0.0     0.0    0.0
 1997 260    84    83      0    0.0     0.0       0       0      0    0.0    0.0    0.0    0.0   0.00   0.00   0.00   0.00    0.0       0       0      0      0     0.      0     0.    0.0    0.0     0.0    0.0
 1997 261    85    84      0    0.0     0.0       0       0      0    0.0    0.0    0.0    0.0   0.00   0.00   0.00   0.00    0.0       0       0      0      0     0.      0     0.    0.0    0.0     0.0    0.0
 1997 262    86    85      0    0.0     0.0       0       0      0    0.0    0.0    0.0    0.0   0.00   0.00   0.00   0.00    0.0       0       0      0      0     0.      0     0.    0.0    0.0     0.0    0.0
 1997 263    87    86      0    0.0     0.0       0       0      0    0.0    0.0    0.0    0.0   0.00   0.00   0.00   0.00    0.0       0       0      0      0     0.      0     0.    0.0    0.0     0.0    0.0
 1997 264    88    87      0    0.0     0.0       0       0      0    0.0    0.0    0.0    0.0   0.00   0.00   0.00   0.00    0.0       0       0      0      0     0.      0     0.    0.0    0.0     0.0    0.0
 1997 265    89    88      0    0.0     0.0       0       0      0    0.0    0.0    0.0    0.0   0.00   0.00   0.00   0.00    0.0       0       0      0      0     0.      0     0.    0.0    0.0     0.0    0.0
 1997 266    90    89      0    0.0     0.0       0       0      0    0.0    0.0    0.0    0.0   0.00   0.00   0.00   0.00    0.0       0       0      0      0     0.      0     0.    0.0    0.0     0.0    0.0
 1997 267    91    90      0    0.0     0.0       0       0      0    0.0    0.0    0.0    0.0   0.00   0.00   0.00   0.00    0.0       0       0      0      0     0.      0     0.    0.0    0.0     0.0    0.0
 1997 268    92    91      0    0.0     0.0       0       0      0    0.0    0.0    0.0    0.0   0.00   0.00   0.00   0.00    0.0       0       0      0      0     0.      0     0.    0.0    0.0     0.0    0.0
 1997 269    93    92      0    0.0     0.0       0       0      0    0.0    0.0    0.0    0.0   0.00   0.00   0.00   0.00    0.0       0       0      0      0     0.      0     0.    0.0    0.0     0.0    0.0
 1997 270    94    93      0    0.0     0.0       0       0      0    0.0    0.0    0.0    0.0   0.00   0.00   0.00   0.00    0.0       0       0      0      0     0.      0     0.    0.0    0.0     0.0    0.0
 1997 271    95    94      0    0.0     0.0       0       0      0    0.0    0.0    0.0    0.0   0.00   0.00   0.00   0.00    0.0       0       0      0      0     0.      0     0.    0.0    0.0     0.0    0.0
 1997 272    96    95      0    0.0     0.0       0       0      0    0.0    0.0    0.0    0.0   0.00   0.00   0.00   0.00    0.0       0       0      0      0     0.      0     0.    0.0    0.0     0.0    0.0
 1997 273    97    96      0    0.0     0.0       0       0      0    0.0    0.0    0.0    0.0   0.00   0.00   0.00   0.00    0.0       0       0      0      0     0.      0     0.    0.0    0.0     0.0    0.0
 1997 274    98    97      0    0.0     0.0       0       0      0    0.0    0.0    0.0    0.0   0.00   0.00   0.00   0.00    0.0       0       0      0      0     0.      0     0.    0.0    0.0     0.0    0.0
 1997 275    99    98      0    0.0     0.0       0       0      0    0.0    0.0    0.0    0.0   0.00   0.00   0.00   0.00    0.0       0       0      0      0     0.      0     0.    0.0    0.0     0.0    0.0
 1997 276   100    99      0    0.0     0.0       0       0      0    0.0    0.0    0.0    0.0   0.00   0.00   0.00   0.00    0.0       0       0      0      0     0.      0     0.    0.0    0.0     0.0    0.0
 1997 277   101   100      0    0.0     0.0       0       0      0    0.0    0.0    0.0    0.0   0.00   0.00   0.00   0.00    0.0       0       0      0      0     0.      0     0.    0.0    0.0     0.0    0.0

*DSSAT Cropping System Model Ver. 4.5.1.023 -Stub         OCT 13, 2014; 10:48:17
                                                                                
*RUN   4        : 97 DATE2 F-MIX            CRGRO045 GHNY9701    4              
 MODEL          : CRGRO045 - Peanut                                             
 EXPERIMENT     : GHNY9701 PN able [sltx] with oversized content [1 SALO], only 
 DATA PATH      :                                                               
 TREATMENT  4   : 97 DATE2 F-MIX            CRGRO045                            
  
@YEAR DOY   DAS   DAP    DLA   DLA%    DLAI    DLFM    DSTM   DSDM   DSD#   DSHM   DSH#   DRTM    DRLV  DRLF   DASM   DPO%   CLAI    CLFM    CSTM    CSDM   CSD#  CSHM   CSH#   CRTM   CRLV   CRLF    CASM   CPO% 
 1997 177     1     0      0    0.0     0.0       0       0      0    0.0    0.0    0.0    0.0   0.00   0.00   0.00   0.00    0.0       0       0      0      0     0.      0     0.    0.0    0.0     0.0    0.0
 1997 178     2     1      0    0.0     0.0       0       0      0    0.0    0.0    0.0    0.0   0.00   0.00   0.00   0.00    0.0       0       0      0      0     0.      0     0.    0.0    0.0     0.0    0.0
 1997 179     3     2      0    0.0     0.0       0       0      0    0.0    0.0    0.0    0.0   0.00   0.00   0.00   0.00    0.0       0       0      0      0     0.      0     0.    0.0    0.0     0.0    0.0
 1997 180     4     3      0    0.0     0.0       0       0      0    0.0    0.0    0.0    0.0   0.00   0.00   0.00   0.00    0.0       0       0      0      0     0.      0     0.    0.0    0.0     0.0    0.0
 1997 181     5     4      0    0.0     0.0       0       0      0    0.0    0.0    0.0    0.0   0.00   0.00   0.00   0.00    0.0       0       0      0      0     0.      0     0.    0.0    0.0     0.0    0.0
 1997 182     6     5      0    0.0     0.0       0       0      0    0.0    0.0    0.0    0.0   0.00   0.00   0.00   0.00    0.0       0       0      0      0     0.      0     0.    0.0    0.0     0.0    0.0
 1997 183     7     6      0    0.0     0.0       0       0      0    0.0    0.0    0.0    0.0   0.00   0.00   0.00   0.00    0.0       0       0      0      0     0.      0     0.    0.0    0.0     0.0    0.0
 1997 184     8     7      0    0.0     0.0       0       0      0    0.0    0.0    0.0    0.0   0.00   0.00   0.00   0.00    0.0       0       0      0      0     0.      0     0.    0.0    0.0     0.0    0.0
 1997 185     9     8      0    0.0     0.0       0       0      0    0.0    0.0    0.0    0.0   0.00   0.00   0.00   0.00    0.0       0       0      0      0     0.      0     0.    0.0    0.0     0.0    0.0
 1997 186    10     9      0    0.0     0.0       0       0      0    0.0    0.0    0.0    0.0   0.00   0.00   0.00   0.00    0.0       0       0      0      0     0.      0     0.    0.0    0.0     0.0    0.0
 1997 187    11    10      0    0.0     0.0       0       0      0    0.0    0.0    0.0    0.0   0.00   0.00   0.00   0.00    0.0       0       0      0      0     0.      0     0.    0.0    0.0     0.0    0.0
 1997 188    12    11      0    0.0     0.0       0       0      0    0.0    0.0    0.0    0.0   0.00   0.00   0.00   0.00    0.0       0       0      0      0     0.      0     0.    0.0    0.0     0.0    0.0
 1997 189    13    12      0    0.0     0.0       0       0      0    0.0    0.0    0.0    0.0   0.00   0.00   0.00   0.00    0.0       0       0      0      0     0.      0     0.    0.0    0.0     0.0    0.0
 1997 190    14    13      0    0.0     0.0       0       0      0    0.0    0.0    0.0    0.0   0.00   0.00   0.00   0.00    0.0       0       0      0      0     0.      0     0.    0.0    0.0     0.0    0.0
 1997 191    15    14      0    0.0     0.0       0       0      0    0.0    0.0    0.0    0.0   0.00   0.00   0.00   0.00    0.0       0       0      0      0     0.      0     0.    0.0    0.0     0.0    0.0
 1997 192    16    15      0    0.0     0.0       0       0      0    0.0    0.0    0.0    0.0   0.00   0.00   0.00   0.00    0.0       0       0      0      0     0.      0     0.    0.0    0.0     0.0    0.0
 1997 193    17    16      0    0.0     0.0       0       0      0    0.0    0.0    0.0    0.0   0.00   0.00   0.00   0.00    0.0       0       0      0      0     0.      0     0.    0.0    0.0     0.0    0.0
 1997 194    18    17      0    0.0     0.0       0       0      0    0.0    0.0    0.0    0.0   0.00   0.00   0.00   0.00    0.0       0       0      0      0     0.      0     0.    0.0    0.0     0.0    0.0
 1997 195    19    18      0    0.0     0.0       0       0      0    0.0    0.0    0.0    0.0   0.00   0.00   0.00   0.00    0.0       0       0      0      0     0.      0     0.    0.0    0.0     0.0    0.0
 1997 196    20    19      0    0.0     0.0       0       0      0    0.0    0.0    0.0    0.0   0.00   0.00   0.00   0.00    0.0       0       0      0      0     0.      0     0.    0.0    0.0     0.0    0.0
 1997 197    21    20      0    0.0     0.0       0       0      0    0.0    0.0    0.0    0.0   0.00   0.00   0.00   0.00    0.0       0       0      0      0     0.      0     0.    0.0    0.0     0.0    0.0
 1997 198    22    21      0    0.0     0.0       0       0      0    0.0    0.0    0.0    0.0   0.00   0.00   0.00   0.00    0.0       0       0      0      0     0.      0     0.    0.0    0.0     0.0    0.0
 1997 199    23    22      0    0.0     0.0       0       0      0    0.0    0.0    0.0    0.0   0.00   0.00   0.00   0.00    0.0       0       0      0      0     0.      0     0.    0.0    0.0     0.0    0.0
 1997 200    24    23      0    0.0     0.0       0       0      0    0.0    0.0    0.0    0.0   0.00   0.00   0.00   0.00    0.0       0       0      0      0     0.      0     0.    0.0    0.0     0.0    0.0
 1997 201    25    24      0    0.0     0.0       0       0      0    0.0    0.0    0.0    0.0   0.00   0.00   0.00   0.00    0.0       0       0      0      0     0.      0     0.    0.0    0.0     0.0    0.0
 1997 202    26    25      0    0.0     0.0       0       0      0    0.0    0.0    0.0    0.0   0.00   0.00   0.00   0.00    0.0       0       0      0      0     0.      0     0.    0.0    0.0     0.0    0.0
 1997 203    27    26      0    0.0     0.0       0       0      0    0.0    0.0    0.0    0.0   0.00   0.00   0.00   0.00    0.0       0       0      0      0     0.      0     0.    0.0    0.0     0.0    0.0
 1997 204    28    27      0    0.0     0.0       0       0      0    0.0    0.0    0.0    0.0   0.00   0.00   0.00   0.00    0.0       0       0      0      0     0.      0     0.    0.0    0.0     0.0    0.0
 1997 205    29    28      0    0.0     0.0       0       0      0    0.0    0.0    0.0    0.0   0.00   0.00   0.00   0.00    0.0       0       0      0      0     0.      0     0.    0.0    0.0     0.0    0.0
 1997 206    30    29      0    0.0     0.0       0       0      0    0.0    0.0    0.0    0.0   0.00   0.00   0.00   0.00    0.0       0       0      0      0     0.      0     0.    0.0    0.0     0.0    0.0
 1997 207    31    30      0    0.0     0.0       0       0      0    0.0    0.0    0.0    0.0   0.00   0.00   0.00   0.00    0.0       0       0      0      0     0.      0     0.    0.0    0.0     0.0    0.0
 1997 208    32    31      0    0.0     0.0       0       0      0    0.0    0.0    0.0    0.0   0.00   0.00   0.00   0.00    0.0       0       0      0      0     0.      0     0.    0.0    0.0     0.0    0.0
 1997 209    33    32      0    0.0     0.0       0       0      0    0.0    0.0    0.0    0.0   0.00   0.00   0.00   0.00    0.0       0       0      0      0     0.      0     0.    0.0    0.0     0.0    0.0
 1997 210    34    33      0    0.0     0.0       0       0      0    0.0    0.0    0.0    0.0   0.00   0.00   0.00   0.00    0.0       0       0      0      0     0.      0     0.    0.0    0.0     0.0    0.0
 1997 211    35    34      0    0.0     0.0       0       0      0    0.0    0.0    0.0    0.0   0.00   0.00   0.00   0.00    0.0       0       0      0      0     0.      0     0.    0.0    0.0     0.0    0.0
 1997 212    36    35      0    0.0     0.0       0       0      0    0.0    0.0    0.0    0.0   0.00   0.00   0.00   0.00    0.0       0       0      0      0     0.      0     0.    0.0    0.0     0.0    0.0
 1997 213    37    36      0    0.0     0.0       0       0      0    0.0    0.0    0.0    0.0   0.00   0.00   0.00   0.00    0.0       0       0      0      0     0.      0     0.    0.0    0.0     0.0    0.0
 1997 214    38    37      0    0.0     0.0       0       0      0    0.0    0.0    0.0    0.0   0.00   0.00   0.00   0.00    0.0       0       0      0      0     0.      0     0.    0.0    0.0     0.0    0.0
 1997 215    39    38      0    0.0     0.0       0       0      0    0.0    0.0    0.0    0.0   0.00   0.00   0.00   0.00    0.0       0       0      0      0     0.      0     0.    0.0    0.0     0.0    0.0
 1997 216    40    39      0    0.0     0.0       0       0      0    0.0    0.0    0.0    0.0   0.00   0.00   0.00   0.00    0.0       0       0      0      0     0.      0     0.    0.0    0.0     0.0    0.0
 1997 217    41    40      0    0.0     0.0       0       0      0    0.0    0.0    0.0    0.0   0.00   0.00   0.00   0.00    0.0       0       0      0      0     0.      0     0.    0.0    0.0     0.0    0.0
 1997 218    42    41      0    0.0     0.0       0       0      0    0.0    0.0    0.0    0.0   0.00   0.00   0.00   0.00    0.0       0       0      0      0     0.      0     0.    0.0    0.0     0.0    0.0
[...]
 1997 230    26    25      0    0.0     0.0       0       0      0    0.0    0.0    0.0    0.0   0.00   0.00   0.00   0.00    0.0       0       0      0      0     0.      0     0.    0.0    0.0     0.0    0.0
 1997 231    27    26      0    0.0     0.0       0       0      0    0.0    0.0    0.0    0.0   0.00   0.00   0.00   0.00    0.0       0       0      0      0     0.      0     0.    0.0    0.0     0.0    0.0
 1997 232    28    27      0    0.0     0.0       0       0      0    0.0    0.0    0.0    0.0   0.00   0.00   0.00   0.00    0.0       0       0      0      0     0.      0     0.    0.0    0.0     0.0    0.0
 1997 233    29    28      0    0.0     0.0       0       0      0    0.0    0.0    0.0    0.0   0.00   0.00   0.00   0.00    0.0       0       0      0      0     0.      0     0.    0.0    0.0     0.0    0.0
 1997 234    30    29      0    0.0     0.0       0       0      0    0.0    0.0    0.0    0.0   0.00   0.00   0.00   0.00    0.0       0       0      0      0     0.      0     0.    0.0    0.0     0.0    0.0
 1997 235    31    30      0    0.0     0.0       0       0      0    0.0    0.0    0.0    0.0   0.00   0.00   0.00   0.00    0.0       0       0      0      0     0.      0     0.    0.0    0.0     0.0    0.0
 1997 236    32    31      0    0.0     0.0       0       0      0    0.0    0.0    0.0    0.0   0.00   0.00   0.00   0.00    0.0       0       0      0      0     0.      0     0.    0.0    0.0     0.0    0.0
 1997 237    33    32      0    0.0     0.0       0       0      0    0.0    0.0    0.0    0.0   0.00   0.00   0.00   0.00    0.0       0       0      0      0     0.      0     0.    0.0    0.0     0.0    0.0
 1997 238    34    33      0    0.0     0.0       0       0      0    0.0    0.0    0.0    0.0   0.00   0.00   0.00   0.00    0.0       0       0      0      0     0.      0     0.    0.0    0.0     0.0    0.0
 1997 239    35    34      0    0.0     0.0       0       0      0    0.0    0.0    0.0    0.0   0.00   0.00   0.00   0.00    0.0       0       0      0      0     0.      0     0.    0.0    0.0     0.0    0.0
 1997 240    36    35      0    0.0     0.0       0       0      0    0.0    0.0    0.0    0.0   0.00   0.00   0.00   0.00    0.0       0       0      0      0     0.      0     0.    0.0    0.0     0.0    0.0
 1997 241    37    36      0    0.0     0.0       0       0      0    0.0    0.0    0.0    0.0   0.00   0.00   0.00   0.00    0.0       0       0      0      0     0.      0     0.    0.0    0.0     0.0    0.0
 1997 242    38    37      0    0.0     0.0       0       0      0    0.0    0.0    0.0    0.0   0.00   0.00   0.00   0.00    0.0       0       0      0      0     0.      0     0.    0.0    0.0     0.0    0.0
 1997 243    39    38      0    0.0     0.0       0       0      0    0.0    0.0    0.0    0.0   0.00   0.00   0.00   0.00    0.0       0       0      0      0     0.      0     0.    0.0    0.0     0.0    0.0
 1997 244    40    39      0    0.0     0.0       0       0      0    0.0    0.0    0.0    0.0   0.00   0.00   0.00   0.00    0.0       0       0      0      0     0.      0     0.    0.0    0.0     0.0    0.0
 1997 245    41    40      0    0.0     0.0       0       0      0    0.0    0.0    0.0    0.0   0.00   0.00   0.00   0.00    0.0       0       0      0      0     0.      0     0.    0.0    0.0     0.0    0.0
 1997 246    42    41      0    0.0     0.0       0       0      0    0.0    0.0    0.0    0.0   0.00   0.00   0.00   0.00    0.0       0       0      0      0     0.      0     0.    0.0    0.0     0.0    0.0
 1997 247    43    42      0    0.0     0.0       0       0      0    0.0    0.0    0.0    0.0   0.00   0.00   0.00   0.00    0.0       0       0      0      0     0.      0     0.    0.0    0.0     0.0    0.0
 1997 248    44    43      0    0.0     0.0       0       0      0    0.0    0.0    0.0    0.0   0.00   0.00   0.00   0.00    0.0       0       0      0      0     0.      0     0.    0.0    0.0     0.0    0.0
 1997 249    45    44      0    0.0     0.0       0       0      0    0.0    0.0    0.0    0.0   0.00   0.00   0.00   0.00    0.0       0       0      0      0     0.      0     0.    0.0    0.0     0.0    0.0
 1997 250    46    45      0    0.0     0.0       0       0      0    0.0    0.0    0.0    0.0   0.00   0.00   0.00   0.00    0.0       0       0      0      0     0.      0     0.    0.0    0.0     0.0    0.0
 1997 251    47    46      0    0.0     0.0       0       0      0    0.0    0.0    0.0    0.0   0.00   0.00   0.00   0.00    0.0       0       0      0      0     0.      0     0.    0.0    0.0     0.0    0.0
 1997 252    48    47      0    0.0     0.0       0       0      0    0.0    0.0    0.0    0.0   0.00   0.00   0.00   0.00    0.0       0       0      0      0     0.      0     0.    0.0    0.0     0.0    0.0
 1997 253    49    48      0    0.0     0.0       0       0      0    0.0    0.0    0.0    0.0   0.00   0.00   0.00   0.00    0.0       0       0      0      0     0.      0     0.    0.0    0.0     0.0    0.0
 1997 254    50    49      0    0.0     0.0       0       0      0    0.0    0.0    0.0    0.0   0.00   0.00   0.00   0.00    0.0       0       0      0      0     0.      0     0.    0.0    0.0     0.0    0.0
 1997 255    51    50      0    0.0     0.0       0       0      0    0.0    0.0    0.0    0.0   0.00   0.00   0.00   0.00    0.0       0       0      0      0     0.      0     0.    0.0    0.0     0.0    0.0
 1997 256    52    51      0    0.0     0.0       0       0      0    0.0    0.0    0.0    0.0   0.00   0.00   0.00   0.00    0.0       0       0      0      0     0.      0     0.    0.0    0.0     0.0    0.0
 1997 257    53    52      0    0.0     0.0       0       0      0    0.0    0.0    0.0    0.0   0.00   0.00   0.00   0.00    0.0       0       0      0      0     0.      0     0.    0.0    0.0     0.0    0.0
 1997 258    54    53      0    0.0     0.0       0       0      0    0.0    0.0    0.0    0.0   0.00   0.00   0.00   0.00    0.0       0       0      0      0     0.      0     0.    0.0    0.0     0.0    0.0
 1997 259    55    54      0    0.0     0.0       0       0      0    0.0    0.0    0.0    0.0   0.00   0.00   0.00   0.00    0.0       0       0      0      0     0.      0     0.    0.0    0.0     0.0    0.0
 1997 260    56    55      0    0.0     0.0       0       0      0    0.0    0.0    0.0    0.0   0.00   0.00   0.00   0.00    0.0       0       0      0      0     0.      0     0.    0.0    0.0     0.0    0.0
 1997 261    57    56      0    0.0     0.0       0       0      0    0.0    0.0    0.0    0.0   0.00   0.00   0.00   0.00    0.0       0       0      0      0     0.      0     0.    0.0    0.0     0.0    0.0
 1997 262    58    57      0    0.0     0.0       0       0      0    0.0    0.0    0.0    0.0   0.00   0.00   0.00   0.00    0.0       0       0      0      0     0.      0     0.    0.0    0.0     0.0    0.0
 1997 263    59    58      0    0.0     0.0       0       0      0    0.0    0.0    0.0    0.0   0.00   0.00   0.00   0.00    0.0       0       0      0      0     0.      0     0.    0.0    0.0     0.0    0.0
 1997 264    60    59      0    0.0     0.0       0       0      0    0.0    0.0    0.0    0.0   0.00   0.00   0.00   0.00    0.0       0       0      0      0     0.      0     0.    0.0    0.0     0.0    0.0
 1997 265    61    60      0    0.0     0.0       0       0      0    0.0    0.0    0.0    0.0   0.00   0.00   0.00   0.00    0.0       0       0      0      0     0.      0     0.    0.0    0.0     0.0    0.0
 1997 266    62    61      0    0.0     0.0       0       0      0    0.0    0.0    0.0    0.0   0.00   0.00   0.00   0.00    0.0       0       0      0      0     0.      0     0.    0.0    0.0     0.0    0.0
 1997 267    63    62      0    0.0     0.0       0       0      0    0.0    0.0    0.0    0.0   0.00   0.00   0.00   0.00    0.0       0       0      0      0     0.      0     0.    0.0    0.0     0.0    0.0
 1997 268    64    63      0    0.0     0.0       0       0      0    0.0    0.0    0.0    0.0   0.00   0.00   0.00   0.00    0.0       0       0      0      0     0.      0     0.    0.0    0.0     0.0    0.0
 1997 269    65    64      0    0.0     0.0       0       0      0    0.0    0.0    0.0    0.0   0.00   0.00   0.00   0.00    0.0       0       0      0      0     0.      0     0.    0.0    0.0     0.0    0.0
 1997 270    66    65      0    0.0     0.0       0       0      0    0.0    0.0    0.0    0.0   0.00   0.00   0.00   0.00    0.0       0       0      0      0     0.      0     0.    0.0    0.0     0.0    0.0
 1997 271    67    66      0    0.0     0.0       0       0      0    0.0    0.0    0.0    0.0   0.00   0.00   0.00   0.00    0.0       0       0      0      0     0.      0     0.    0.0    0.0     0.0    0.0
 1997 272    68    67      0    0.0     0.0       0       0      0    0.0    0.0    0.0    0.0   0.00   0.00   0.00   0.00    0.0       0       0      0      0     0.      0     0.    0.0    0.0     0.0    0.0
 1997 273    69    68      0    0.0     0.0       0       0      0    0.0    0.0    0.0    0.0   0.00   0.00   0.00   0.00    0.0       0       0      0      0     0.      0     0.    0.0    0.0     0.0    0.0
 1997 274    70    69      0    0.0     0.0       0       0      0    0.0    0.0    0.0    0.0   0.00   0.00   0.00   0.00    0.0       0       0      0      0     0.      0     0.    0.0    0.0     0.0    0.0
 1997 275    71    70      0    0.0     0.0       0       0      0    0.0    0.0    0.0    0.0   0.00   0.00   0.00   0.00    0.0       0       0      0      0     0.      0     0.    0.0    0.0     0.0    0.0
 1997 276    72    71      0    0.0     0.0       0       0      0    0.0    0.0    0.0    0.0   0.00   0.00   0.00   0.00    0.0       0       0      0      0     0.      0     0.    0.0    0.0     0.0    0.0
 1997 277    73    72      0    0.0     0.0       0       0      0    0.0    0.0    0.0    0.0   0.00   0.00   0.00   0.00    0.0       0       0      0      0     0.      0     0.    0.0    0.0     0.0    0.0
 1997 278    74    73      0    0.0     0.0       0       0      0    0.0    0.0    0.0    0.0   0.00   0.00   0.00   0.00    0.0       0       0      0      0     0.      0     0.    0.0    0.0     0.0    0.0
 1997 279    75    74      0    0.0     0.0       0       0      0    0.0    0.0    0.0    0.0   0.00   0.00   0.00   0.00    0.0       0       0      0      0     0.      0     0.    0.0    0.0     0.0    0.0
 1997 280    76    75      0    0.0     0.0       0       0      0    0.0    0.0    0.0    0.0   0.00   0.00   0.00   0.00    0.0       0       0      0      0     0.      0     0.    0.0    0.0     0.0    0.0
 1997 281    77    76      0    0.0     0.0       0       0      0    0.0    0.0    0.0    0.0   0.00   0.00   0.00   0.00    0.0       0       0      0      0     0.      0     0.    0.0    0.0     0.0    0.0
 1997 282    78    77      0    0.0     0.0       0       0      0    0.0    0.0    0.0    0.0   0.00   0.00   0.00   0.00    0.0       0       0      0      0     0.      0     0.    0.0    0.0     0.0    0.0
 1997 283    79    78      0    0.0     0.0       0       0      0    0.0    0.0    0.0    0.0   0.00   0.00   0.00   0.00    0.0       0       0      0      0     0.      0     0.    0.0    0.0     0.0    0.0
 1997 284    80    79      0    0.0     0.0       0       0      0    0.0    0.0    0.0    0.0   0.00   0.00   0.00   0.00    0.0       0       0      0      0     0.      0     0.    0.0    0.0     0.0    0.0
 1997 285    81    80      0    0.0     0.0       0       0      0    0.0    0.0    0.0    0.0   0.00   0.00   0.00   0.00    0.0       0       0      0      0     0.      0     0.    0.0    0.0     0.0    0.0
 1997 286    82    81      0    0.0     0.0       0       0      0    0.0    0.0    0.0    0.0   0.00   0.00   0.00   0.00    0.0       0       0      0      0     0.      0     0.    0.0    0.0     0.0    0.0
 1997 287    83    82      0    0.0     0.0       0       0      0    0.0    0.0    0.0    0.0   0.00   0.00   0.00   0.00    0.0       0       0      0      0     0.      0     0.    0.0    0.0     0.0    0.0
 1997 288    84    83      0    0.0     0.0       0       0      0    0.0    0.0    0.0    0.0   0.00   0.00   0.00   0.00    0.0       0       0      0      0     0.      0     0.    0.0    0.0     0.0    0.0
 1997 289    85    84      0    0.0     0.0       0       0      0    0.0    0.0    0.0    0.0   0.00   0.00   0.00   0.00    0.0       0       0      0      0     0.      0     0.    0.0    0.0     0.0    0.0
 1997 290    86    85      0    0.0     0.0       0       0      0    0.0    0.0    0.0    0.0   0.00   0.00   0.00   0.00    0.0       0       0      0      0     0.      0     0.    0.0    0.0     0.0    0.0
 1997 291    87    86      0    0.0     0.0       0       0      0    0.0    0.0    0.0    0.0   0.00   0.00   0.00   0.00    0.0       0       0      0      0     0.      0     0.    0.0    0.0     0.0    0.0
 1997 292    88    87      0    0.0     0.0       0       0      0    0.0    0.0    0.0    0.0   0.00   0.00   0.00   0.00    0.0       0       0      0      0     0.      0     0.    0.0    0.0     0.0    0.0
 1997 293    89    88      0    0.0     0.0       0       0      0    0.0    0.0    0.0    0.0   0.00   0.00   0.00   0.00    0.0       0       0      0      0     0.      0     0.    0.0    0.0     0.0    0.0
 1997 294    90    89      0    0.0     0.0       0       0      0    0.0    0.0    0.0    0.0   0.00   0.00   0.00   0.00    0.0       0       0      0      0     0.      0     0.    0.0    0.0     0.0    0.0
 1997 295    91    90      0    0.0     0.0       0       0      0    0.0    0.0    0.0    0.0   0.00   0.00   0.00   0.00    0.0       0       0      0      0     0.      0     0.    0.0    0.0     0.0    0.0
 1997 296    92    91      0    0.0     0.0       0       0      0    0.0    0.0    0.0    0.0   0.00   0.00   0.00   0.00    0.0       0       0      0      0     0.      0     0.    0.0    0.0     0.0    0.0
 1997 297    93    92      0    0.0     0.0       0       0      0    0.0    0.0    0.0    0.0   0.00   0.00   0.00   0.00    0.0       0       0      0      0     0.      0     0.    0.0    0.0     0.0    0.0
 1997 298    94    93      0    0.0     0.0       0       0      0    0.0    0.0    0.0    0.0   0.00   0.00   0.00   0.00    0.0       0       0      0      0     0.      0     0.    0.0    0.0     0.0    0.0
 1997 299    95    94      0    0.0     0.0       0       0      0    0.0    0.0    0.0    0.0   0.00   0.00   0.00   0.00    0.0       0       0      0      0     0.      0     0.    0.0    0.0     0.0    0.0
 1997 300    96    95      0    0.0     0.0       0       0      0    0.0    0.0    0.0    0.0   0.00   0.00   0.00   0.00    0.0       0       0      0      0     0.      0     0.    0.0    0.0     0.0    0.0
 1997 301    97    96      0    0.0     0.0       0       0      0    0.0    0.0    0.0    0.0   0.00   0.00   0.00   0.00    0.0       0       0      0      0     0.      0     0.    0.0    0.0     0.0    0.0
 1997 302    98    97      0    0.0     0.0       0       0      0    0.0    0.0    0.0    0.0   0.00   0.00   0.00   0.00    0.0       0       0      0      0     0.      0     0.    0.0    0.0     0.0    0.0
 1997 303    99    98      0    0.0     0.0       0       0      0    0.0    0.0    0.0    0.0   0.00   0.00   0.00   0.00    0.0       0       0      0      0     0.      0     0.    0.0    0.0     0.0    0.0
 1997 304   100    99      0    0.0     0.0       0       0      0    0.0    0.0    0.0    0.0   0.00   0.00   0.00   0.00    0.0       0       0      0      0     0.      0     0.    0.0    0.0     0.0    0.0
 1997 305   101   100      0    0.0     0.0       0       0      0    0.0    0.0    0.0    0.0   0.00   0.00   0.00   0.00    0.0       0       0      0      0     0.      0     0.    0.0    0.0     0.0    0.0
 1997 306   102   101      0    0.0     0.0       0       0      0    0.0    0.0    0.0    0.0   0.00   0.00   0.00   0.00    0.0       0       0      0      0     0.      0     0.    0.0    0.0     0.0    0.0
 1997 307   103   102      0    0.0     0.0       0       0      0    0.0    0.0    0.0    0.0   0.00   0.00   0.00   0.00    0.0       0       0      0      0     0.      0     0.    0.0    0.0     0.0    0.0
 1997 308   104   103      0    0.0     0.0       0       0      0    0.0    0.0    0.0    0.0   0.00   0.00   0.00   0.00    0.0       0       0      0      0     0.      0     0.    0.0    0.0     0.0    0.0
 1997 309   105   104      0    0.0     0.0       0       0      0    0.0    0.0    0.0    0.0   0.00   0.00   0.00   0.00    0.0       0       0      0      0     0.      0     0.    0.0    0.0     0.0    0.0
 1997 310   106   105      0    0.0     0.0       0       0      0    0.0    0.0    0.0    0.0   0.00   0.00   0.00   0.00    0.0       0       0      0      0     0.      0     0.    0.0    0.0     0.0    0.0
 1997 311   107   106      0    0.0     0.0       0       0      0    0.0    0.0    0.0    0.0   0.00   0.00   0.00   0.00    0.0       0       0      0      0     0.      0     0.    0.0    0.0     0.0    0.0
 1997 312   108   107      0    0.0     0.0       0       0      0    0.0    0.0    0.0    0.0   0.00   0.00   0.00   0.00    0.0       0       0      0      0     0.      0     0.    0.0    0.0     0.0    0.0
 1997 313   109   108      0    0.0     0.0       0       0      0    0.0    0.0    0.0    0.0   0.00   0.00   0.00   0.00    0.0       0       0      0      0     0.      0     0.    0.0    0.0     0.0    0.0
 1997 314   110   109      0    0.0     0.0       0       0      0    0.0    0.0    0.0    0.0   0.00   0.00   0.00   0.00    0.0       0       0      0      0     0.      0     0.    0.0    0.0     0.0    0.0
 1997 315   111   110      0    0.0     0.0       0       0      0    0.0    0.0    0.0    0.0   0.00   0.00   0.00   0.00    0.0       0       0      0      0     0.      0     0.    0.0    0.0     0.0    0.0
 1997 316   112   111      0    0.0     0.0       0       0      0    0.0    0.0    0.0    0.0   0.00   0.00   0.00   0.00    0.0       0       0      0      0     0.      0     0.    0.0    0.0     0.0    0.0
 1997 317   113   112      0    0.0     0.0       0       0      0    0.0    0.0    0.0    0.0   0.00   0.00   0.00   0.00    0.0       0       0      0      0     0.      0     0.    0.0    0.0     0.0    0.0
 1997 318   114   113      0    0.0     0.0       0       0      0    0.0    0.0    0.0    0.0   0.00   0.00   0.00   0.00    0.0       0       0      0      0     0.      0     0.    0.0    0.0     0.0    0.0
 1997 319   115   114      0    0.0     0.0       0       0      0    0.0    0.0    0.0    0.0   0.00   0.00   0.00   0.00    0.0       0       0      0      0     0.      0     0.    0.0    0.0     0.0    0.0
 1997 320   116   115      0    0.0     0.0       0       0      0    0.0    0.0    0.0    0.0   0.00   0.00   0.00   0.00    0.0       0       0      0      0     0.      0     0.    0.0    0.0     0.0    0.0
 1997 321   117   116      0    0.0     0.0       0       0      0    0.0    0.0    0.0    0.0   0.00   0.00   0.00   0.00    0.0       0       0      0      0     0.      0     0.    0.0    0.0     0.0    0.0
 1997 322   118   117      0    0.0     0.0       0       0      0    0.0    0.0    0.0    0.0   0.00   0.00   0.00   0.00    0.0       0       0      0      0     0.      0     0.    0.0    0.0     0.0    0.0
 1997 323   119   118      0    0.0     0.0       0       0      0    0.0    0.0    0.0    0.0   0.00   0.00   0.00   0.00    0.0       0       0      0      0     0.      0     0.    0.0    0.0     0.0    0.0
 1997 324   120   119      0    0.0     0.0       0       0      0    0.0    0.0    0.0    0.0   0.00   0.00   0.00   0.00    0.0       0       0      0      0     0.      0     0.    0.0    0.0     0.0    0.0
