*PLANT N OUTPUT FILE

*DSSAT Cropping System Model Ver. 4.5.1.023 -Stub         OCT 13, 2014; 10:48:17
                                                                                
*RUN   1        : 97 DATE1 CHINESE          CRGRO045 GHNY9701    1              
 MODEL          : CRGRO045 - Peanut                                             
 EXPERIMENT     : GHNY9701 PN able [sltx] with oversized content [1 SALO], only 
 DATA PATH      :                                                               
 TREATMENT  1   : 97 DATE1 CHINESE          CRGRO045                            
  
@YEAR DOY   DAS   DAP    CNAD    GNAD    VNAD    GN%D    VN%D     NFXC    NUPC    LNAD    SNAD    LN%D    SN%D    SHND   RN%D   NFXD   SNN0C   SNN1C
 1997 149     1     0     0.0     0.0     0.0    0.00    0.00      0.0     0.0     0.0     0.0    0.00    0.00     0.0    0.0    0.0    0.00    0.00
 1997 150     2     1     0.0     0.0     0.0    0.00    0.00      0.0     0.0     0.0     0.0    0.00    0.00     0.0    0.0    0.0    0.00    0.00
 1997 151     3     2     0.0     0.0     0.0    0.00    0.00      0.0     0.0     0.0     0.0    0.00    0.00     0.0    0.0    0.0    0.00    0.00
 1997 152     4     3     0.0     0.0     0.0    0.00    0.00      0.0     0.0     0.0     0.0    0.00    0.00     0.0    0.0    0.0    0.00    0.00
 1997 153     5     4     0.0     0.0     0.0    0.00    0.00      0.0     0.0     0.0     0.0    0.00    0.00     0.0    0.0    0.0    0.00    0.00
 1997 154     6     5     0.0     0.0     0.0    0.00    0.00      0.0     0.0     0.0     0.0    0.00    0.00     0.0    0.0    0.0    0.00    0.00
 1997 155     7     6     0.0     0.0     0.0    0.00    0.00      0.0     0.0     0.0     0.0    0.00    0.00     0.0    0.0    0.0    0.00    0.00
 1997 156     8     7     0.5     0.0     0.5    0.00    4.84      0.1     0.0     0.5     0.1    5.36    2.56     0.0    2.3    0.0    0.00    0.00
 1997 157     9     8     0.6     0.0     0.6    0.00    4.83      0.1     0.0     0.6     0.1    5.32    2.53     0.0    2.2    0.1    0.00    0.01
 1997 158    10     9     0.7     0.0     0.7    0.00    4.83      0.2     0.0     0.6     0.1    5.28    2.50     0.0    2.2    0.0    0.00    0.01
 1997 159    11    10     0.8     0.0     0.8    0.00    4.79      0.2     0.0     0.7     0.1    5.25    2.47     0.0    2.2    0.1    0.00    0.01
 1997 160    12    11     0.9     0.0     0.9    0.00    4.65      0.3     0.0     0.8     0.1    5.07    2.38     0.0    2.1    0.1    0.00    0.01
 1997 161    13    12     1.0     0.0     1.0    0.00    4.53      0.4     0.0     0.9     0.1    4.92    2.29     0.0    2.0    0.1    0.00    0.02
 1997 162    14    13     1.1     0.0     1.1    0.00    4.55      0.5     0.0     1.0     0.1    4.94    2.29     0.0    2.0    0.1    0.00    0.02
 1997 163    15    14     1.1     0.0     1.1    0.00    4.40      0.6     0.0     1.1     0.1    4.81    2.17     0.0    1.9    0.1    0.01    0.02
 1997 164    16    15     1.3     0.0     1.3    0.00    4.36      0.8     0.0     1.2     0.1    4.80    2.20     0.0    1.9    0.1    0.01    0.02
 1997 165    17    16     1.4     0.0     1.4    0.00    4.20      1.0     0.0     1.3     0.1    4.69    2.07     0.0    1.8    0.1    0.01    0.03
 1997 166    18    17     1.5     0.0     1.5    0.00    4.09      1.2     0.0     1.4     0.2    4.64    2.07     0.0    1.8    0.2    0.01    0.03
 1997 167    19    18     1.7     0.0     1.7    0.00    3.99      1.4     0.0     1.5     0.2    4.62    2.11     0.0    1.8    0.2    0.01    0.03
 1997 168    20    19     1.9     0.0     1.9    0.00    3.90      1.7     0.0     1.6     0.3    4.61    2.16     0.0    1.8    0.2    0.02    0.04
 1997 169    21    20     2.1     0.0     2.1    0.00    3.80      2.0     0.0     1.8     0.4    4.53    2.11     0.0    1.8    0.3    0.02    0.04
 1997 170    22    21     2.4     0.0     2.4    0.00    3.79      2.4     0.0     2.0     0.4    4.54    2.12     0.0    1.8    0.3    0.02    0.05
 1997 171    23    22     2.7     0.0     2.7    0.00    3.74      2.8     0.0     2.2     0.5    4.51    2.11     0.0    1.8    0.4    0.02    0.05
 1997 172    24    23     3.1     0.0     3.1    0.00    3.71      3.3     0.0     2.5     0.6    4.51    2.11     0.0    1.8    0.4    0.03    0.06
 1997 173    25    24     3.4     0.0     3.4    0.00    3.72      3.7     0.0     2.8     0.7    4.55    2.14     0.0    1.8    0.4    0.03    0.06
 1997 174    26    25     3.8     0.0     3.8    0.00    3.74      4.2     0.0     3.0     0.8    4.60    2.18     0.0    1.8    0.4    0.03    0.07
 1997 175    27    26     4.3     0.0     4.3    0.00    3.73      4.7     0.0     3.4     0.9    4.62    2.19     0.0    1.8    0.5    0.04    0.08
 1997 176    28    27     4.8     0.0     4.8    0.00    3.66      5.4     0.0     3.8     1.1    4.57    2.15     0.0    1.8    0.6    0.04    0.08
 1997 177    29    28     5.4     0.0     5.4    0.00    3.59      6.2     0.0     4.2     1.2    4.51    2.12     0.0    1.8    0.7    0.05    0.09
 1997 178    30    29     6.2     0.0     6.2    0.00    3.57      7.2     0.0     4.7     1.4    4.51    2.11     0.0    1.8    0.8    0.05    0.10
 1997 179    31    30     6.9     0.0     6.9    0.00    3.59      8.1     0.0     5.3     1.7    4.56    2.15     0.0    1.8    0.9    0.06    0.11
 1997 180    32    31     7.8     0.0     7.8    0.00    3.55      9.2     0.0     5.9     1.9    4.54    2.13     0.0    1.8    1.0    0.07    0.12
 1997 181    33    32     8.8     0.0     8.8    0.00    3.58     10.4     0.0     6.6     2.2    4.60    2.16     0.0    1.8    1.1    0.08    0.13
 1997 182    34    33     9.9     0.0     9.9    0.00    3.55     11.7     0.0     7.3     2.5    4.58    2.14     0.0    1.8    1.2    0.09    0.14
 1997 183    35    34    10.7     0.0    10.7    0.00    3.55     12.7     0.0     7.9     2.8    4.60    2.15     2.8    1.8    1.0    0.10    0.15
 1997 184    36    35    11.7     0.0    11.7    0.00    3.55     13.8     0.0     8.6     3.1    4.63    2.16     2.8    1.8    1.1    0.11    0.17
 1997 185    37    36    12.8     0.0    12.8    0.00    3.56     15.0     0.0     9.4     3.4    4.65    2.16     2.8    1.8    1.2    0.12    0.18
 1997 186    38    37    14.0     0.0    14.0    0.00    3.47     16.6     0.0    10.2     3.8    4.57    2.11     2.8    1.8    1.3    0.14    0.20
 1997 187    39    38    15.4     0.0    15.4    0.00    3.44     18.4     0.1    11.1     4.3    4.56    2.10     2.8    1.8    1.6    0.15    0.21
 1997 188    40    39    17.1     0.0    17.0    0.00    3.43     20.3     0.1    12.2     4.8    4.56    2.09     2.8    1.8    1.8    0.17    0.23
 1997 189    41    40    18.8     0.0    18.6    0.00    3.38     22.5     0.1    13.3     5.3    4.53    2.07     2.8    1.8    1.9    0.19    0.25
 1997 190    42    41    20.9     0.0    20.7    0.00    3.39     24.8     0.3    14.7     6.0    4.56    2.08     2.8    1.8    2.2    0.21    0.27
 1997 191    43    42    22.6     0.0    22.3    0.00    3.39     26.5     0.4    15.7     6.5    4.57    2.08     2.8    1.8    1.7    0.23    0.29
 1997 192    44    43    24.4     0.0    23.9    0.00    3.38     28.3     0.6    16.8     7.1    4.58    2.08     2.8    1.8    1.8    0.25    0.31
 1997 193    45    44    26.7     0.0    26.0    0.00    3.35     30.8     0.8    18.2     7.8    4.57    2.07     2.8    1.8    2.3    0.29    0.34
 1997 194    46    45    29.0     0.0    28.1    0.00    3.32     33.6     1.0    19.6     8.6    4.55    2.05     2.7    1.8    2.5    0.35    0.36
 1997 195    47    46    31.6     0.0    30.5    4.62    3.31     36.4     1.1    21.1     9.4    4.56    2.05     2.7    1.8    2.8    0.42    0.39
 1997 196    48    47    33.4     0.0    31.9    4.39    3.29     38.4     1.1    22.0    10.0    4.56    2.04     2.7    1.8    2.0    0.50    0.42
 1997 197    49    48    34.7     0.1    32.9    4.20    3.27     39.8     1.1    22.6    10.3    4.53    2.02     2.7    1.8    1.4    0.53    0.45
 1997 198    50    49    37.2     0.2    35.0    4.28    3.25     42.6     1.2    23.9    11.1    4.53    2.02     2.7    1.8    2.8    0.57    0.48
 1997 199    51    50    39.8     0.4    37.0    4.28    3.23     45.4     1.2    25.2    11.8    4.52    2.01     2.7    1.8    2.8    0.62    0.51
 1997 200    52    51    42.4     0.6    39.0    4.32    3.20     48.5     1.2    26.4    12.6    4.49    1.99     2.7    1.8    2.9    0.66    0.55
 1997 201    53    52    44.6     0.8    40.5    4.28    3.17     50.8     1.2    27.3    13.2    4.48    1.97     2.7    1.8    2.3    0.71    0.58
 1997 202    54    53    45.8     1.1    40.9    4.28    3.13     52.0     1.2    27.6    13.3    4.44    1.95     2.6    1.8    1.2    0.76    0.61
 1997 203    55    54    48.7     1.5    43.0    4.30    3.09     55.4     1.3    28.8    14.1    4.40    1.93     2.6    1.8    3.0    0.80    0.65
 1997 204    56    55    51.6     1.9    45.0    4.35    3.08     58.4     1.4    30.0    14.9    4.39    1.92     2.6    1.8    3.0    0.86    0.69
 1997 205    57    56    54.4     2.4    46.7    4.37    3.06     61.3     1.5    31.1    15.7    4.38    1.91     2.6    1.8    2.9    0.91    0.72
 1997 206    58    57    57.6     2.9    48.9    4.37    3.04     64.5     1.7    32.3    16.5    4.37    1.90     2.6    1.7    3.2    0.97    0.76
 1997 207    59    58    60.8     3.5    51.0    4.39    3.02     67.8     1.9    33.6    17.4    4.36    1.89     2.6    1.7    3.3    1.03    0.81
 1997 208    60    59    63.9     4.2    52.8    4.43    3.00     70.9     2.1    34.6    18.2    4.35    1.88     2.5    1.7    3.1    1.10    0.85
 1997 209    61    60    67.2     5.0    54.7    4.44    2.98     74.3     2.3    35.7    19.0    4.33    1.87     2.5    1.7    3.3    1.16    0.89
 1997 210    62    61    69.4     5.9    55.4    4.45    2.94     76.3     2.6    36.1    19.3    4.30    1.85     2.5    1.7    2.0    1.24    0.94
 1997 211    63    62    70.9     6.9    55.3    4.43    2.90     77.6     2.9    36.0    19.3    4.25    1.82     2.5    1.7    1.3    1.32    0.98
 1997 212    64    63    72.0     7.9    54.9    4.40    2.87     78.6     3.1    35.7    19.2    4.21    1.80     2.5    1.7    1.0    1.39    1.02
 1997 213    65    64    73.8     9.1    54.8    4.38    2.83     80.1     3.4    35.6    19.2    4.18    1.78     2.5    1.6    1.5    1.47    1.07
 1997 214    66    65    77.1    10.4    56.1    4.39    2.82     83.4     3.5    36.3    19.8    4.17    1.77     2.4    1.6    3.3    1.55    1.11
 1997 215    67    66    80.1    11.7    57.3    4.41    2.80     86.5     3.7    36.9    20.4    4.15    1.76     2.4    1.6    3.1    1.63    1.15
 1997 216    68    67    82.0    13.2    57.0    4.42    2.77     88.3     3.8    36.7    20.3    4.12    1.74     2.4    1.6    1.8    1.72    1.20
 1997 217    69    68    84.2    14.8    57.0    4.41    2.74     90.4     4.0    36.6    20.4    4.09    1.72     2.4    1.6    2.1    1.80    1.24
 1997 218    70    69    85.0    16.5    56.4    4.39    2.70     90.9     4.3    36.2    20.2    4.04    1.70     2.3    1.6    0.6    1.88    1.28
 1997 219    71    70    87.0    18.3    56.2    4.39    2.67     92.8     4.5    36.0    20.2    4.01    1.68     2.3    1.5    1.9    1.97    1.32
 1997 220    72    71    90.1    20.3    56.7    4.38    2.65     95.8     4.6    36.2    20.5    3.99    1.67     2.3    1.5    3.0    2.05    1.36
 1997 221    73    72    92.2    22.4    56.4    4.39    2.62     97.9     4.8    36.0    20.4    3.95    1.65     2.3    1.5    2.0    2.13    1.40
 1997 222    74    73    95.1    24.7    56.5    4.40    2.60    100.7     4.9    35.9    20.6    3.92    1.63     2.2    1.5    2.9    2.22    1.44
 1997 223    75    74    98.0    27.1    56.5    4.40    2.57    103.4     5.2    35.8    20.7    3.89    1.62     2.2    1.5    2.7    2.30    1.48
 1997 224    76    75   100.5    29.6    56.4    4.40    2.54    105.8     5.3    35.7    20.7    3.86    1.60     2.2    1.4    2.4    2.37    1.52
 1997 225    77    76   103.0    32.1    56.3    4.41    2.51    108.2     5.5    35.5    20.8    3.83    1.58     2.1    1.4    2.4    2.45    1.56
 1997 226    78    77   105.5    34.8    56.1    4.42    2.49    110.6     5.7    35.3    20.8    3.80    1.57     2.1    1.4    2.4    2.54    1.61
 1997 227    79    78   106.4    37.4    54.9    4.48    2.42    111.2     5.9    34.6    20.3    3.72    1.51     2.0    1.4    0.6    2.61    1.64
 1997 228    80    79   109.0    40.6    54.4    4.52    2.37    113.6     6.2    34.2    20.1    3.67    1.48     2.0    1.4    2.4    2.69    1.68
 1997 229    81    80   110.9    44.1    53.1    4.60    2.31    115.3     6.3    33.5    19.6    3.60    1.43     2.0    1.3    1.7    2.77    1.72
 1997 230    82    81   113.3    47.5    52.5    4.63    2.27    117.6     6.5    33.1    19.4    3.55    1.40     1.9    1.3    2.3    2.84    1.75
 1997 231    83    82   116.0    50.9    52.0    4.65    2.23    120.0     6.8    32.7    19.3    3.50    1.38     1.9    1.3    2.4    2.91    1.78
 1997 232    84    83   118.6    55.0    50.9    4.71    2.16    122.4     7.0    32.1    18.8    3.43    1.33     1.8    1.2    2.4    2.99    1.82
 1997 233    85    84   121.5    58.3    50.5    4.73    2.13    125.1     7.3    31.8    18.7    3.39    1.31     1.8    1.2    2.7    3.06    1.85
 1997 234    86    85   123.7    61.8    49.6    4.77    2.08    127.2     7.5    31.2    18.4    3.34    1.27     1.7    1.2    2.1    3.15    1.88
 1997 235    87    86   124.3    63.8    48.6    4.79    2.04    127.6     7.6    30.6    18.0    3.28    1.24     1.7    1.2    0.4    3.21    1.91
 1997 236    88    87   126.6    67.4    47.7    4.83    1.99    129.7     7.8    30.0    17.6    3.22    1.21     1.7    1.2    2.1    3.27    1.94
 1997 237    89    88   129.3    70.7    47.3    4.84    1.96    132.1     8.1    29.7    17.5    3.19    1.19     1.6    1.1    2.4    3.34    1.97
 1997 238    90    89   131.6    74.1    46.4    4.87    1.92    134.3     8.3    29.2    17.2    3.14    1.16     1.6    1.1    2.1    3.39    2.00
 1997 239    91    90   134.0    77.4    45.7    4.90    1.88    136.4     8.6    28.8    16.9    3.09    1.13     1.6    1.1    2.1    3.44    2.03
 1997 240    92    91   135.4    79.8    45.0    4.92    1.85    137.7     8.7    28.3    16.7    3.05    1.11     1.5    1.1    1.3    3.51    2.05
 1997 241    93    92   138.1    82.6    44.8    4.92    1.83    140.1     9.0    28.1    16.7    3.02    1.10     1.5    1.1    2.4    3.55    2.08
 1997 242    94    93   140.7    85.4    44.7    4.92    1.82    142.6     9.1    28.0    16.7    3.00    1.10     1.5    1.1    2.5    3.61    2.11
 1997 243    95    94   143.3    88.1    44.7    4.93    1.81    145.2     9.2    27.8    16.8    2.99    1.09     1.5    1.1    2.6    3.65    2.13
 1997 244    96    95   145.7    90.5    44.6    4.93    1.80    147.4     9.4    27.7    16.9    2.97    1.09     1.5    1.1    2.2    3.69    2.16
 1997 245    97    96   148.1    92.9    44.5    4.93    1.78    149.5     9.7    27.6    17.0    2.95    1.09     1.5    1.0    2.1    3.74    2.18
 1997 246    98    97   149.6    95.3    43.9    4.95    1.75    150.8     9.9    27.2    16.7    2.91    1.06     1.4    1.0    1.3    3.77    2.21
 1997 247    99    98   151.2    97.8    43.3    4.96    1.73    152.2    10.2    26.8    16.5    2.88    1.05     1.4    1.0    1.4    3.81    2.23
 1997 248   100    99   151.5    98.8    42.7    4.92    1.66    152.2    10.4    26.5    16.2    2.81    1.00     1.4    1.0    0.0    3.84    2.26

*DSSAT Cropping System Model Ver. 4.5.1.023 -Stub         OCT 13, 2014; 10:48:17
                                                                                
*RUN   2        : 97 DATE1 F-MIX            CRGRO045 GHNY9701    2              
 MODEL          : CRGRO045 - Peanut                                             
 EXPERIMENT     : GHNY9701 PN able [sltx] with oversized content [1 SALO], only 
 DATA PATH      :                                                               
 TREATMENT  2   : 97 DATE1 F-MIX            CRGRO045                            
  
@YEAR DOY   DAS   DAP    CNAD    GNAD    VNAD    GN%D    VN%D     NFXC    NUPC    LNAD    SNAD    LN%D    SN%D    SHND   RN%D   NFXD   SNN0C   SNN1C
 1997 149     1     0     0.0     0.0     0.0    0.00    0.00      0.0     0.0     0.0     0.0    0.00    0.00     0.0    0.0    0.0    0.00    0.00
 1997 150     2     1     0.0     0.0     0.0    0.00    0.00      0.0     0.0     0.0     0.0    0.00    0.00     0.0    0.0    0.0    0.00    0.00
 1997 151     3     2     0.0     0.0     0.0    0.00    0.00      0.0     0.0     0.0     0.0    0.00    0.00     0.0    0.0    0.0    0.00    0.00
 1997 152     4     3     0.0     0.0     0.0    0.00    0.00      0.0     0.0     0.0     0.0    0.00    0.00     0.0    0.0    0.0    0.00    0.00
 1997 153     5     4     0.0     0.0     0.0    0.00    0.00      0.0     0.0     0.0     0.0    0.00    0.00     0.0    0.0    0.0    0.00    0.00
 1997 154     6     5     0.0     0.0     0.0    0.00    0.00      0.0     0.0     0.0     0.0    0.00    0.00     0.0    0.0    0.0    0.00    0.00
 1997 155     7     6     0.0     0.0     0.0    0.00    0.00      0.0     0.0     0.0     0.0    0.00    0.00     0.0    0.0    0.0    0.00    0.00
 1997 156     8     7     0.0     0.0     0.0    0.00    0.00      0.0     0.0     0.0     0.0    0.00    0.00     0.0    0.0    0.0    0.00    0.00
 1997 157     9     8     0.6     0.0     0.6    0.00    4.84      0.1     0.0     0.6     0.1    5.36    2.56     0.0    2.3    0.0    0.00    0.01
 1997 158    10     9     0.7     0.0     0.7    0.00    4.79      0.1     0.0     0.6     0.1    5.29    2.52     0.0    2.2    0.0    0.00    0.01
 1997 159    11    10     0.7     0.0     0.7    0.00    4.79      0.1     0.0     0.7     0.1    5.29    2.51     0.0    2.2    0.0    0.00    0.01
 1997 160    12    11     0.8     0.0     0.8    0.00    4.73      0.2     0.0     0.8     0.1    5.19    2.46     0.0    2.2    0.1    0.00    0.01
 1997 161    13    12     0.9     0.0     0.9    0.00    4.70      0.3     0.0     0.9     0.1    5.13    2.43     0.0    2.1    0.1    0.00    0.02
 1997 162    14    13     1.0     0.0     1.0    0.00    4.70      0.4     0.0     1.0     0.1    5.12    2.41     0.0    2.1    0.1    0.00    0.02
 1997 163    15    14     1.1     0.0     1.1    0.00    4.51      0.5     0.0     1.0     0.1    4.98    2.25     0.0    2.0    0.1    0.01    0.02
 1997 164    16    15     1.3     0.0     1.3    0.00    4.47      0.6     0.0     1.1     0.1    4.97    2.29     0.0    2.0    0.1    0.01    0.03
 1997 165    17    16     1.4     0.0     1.4    0.00    4.30      0.8     0.0     1.2     0.1    4.87    2.15     0.0    1.9    0.1    0.01    0.03
 1997 166    18    17     1.5     0.0     1.5    0.00    4.17      0.9     0.0     1.3     0.2    4.79    2.13     0.0    1.9    0.1    0.01    0.03
 1997 167    19    18     1.6     0.0     1.6    0.00    4.04      1.1     0.0     1.4     0.2    4.74    2.13     0.0    1.9    0.2    0.01    0.04
 1997 168    20    19     1.8     0.0     1.8    0.00    3.93      1.4     0.0     1.5     0.3    4.72    2.16     0.0    1.9    0.2    0.02    0.04
 1997 169    21    20     2.0     0.0     2.0    0.00    3.83      1.7     0.0     1.7     0.4    4.62    2.11     0.0    1.9    0.2    0.02    0.05
 1997 170    22    21     2.3     0.0     2.3    0.00    3.81      2.0     0.0     1.9     0.4    4.62    2.12     0.0    1.8    0.3    0.02    0.05
 1997 171    23    22     2.6     0.0     2.6    0.00    3.75      2.4     0.0     2.1     0.5    4.57    2.10     0.0    1.8    0.3    0.02    0.06
 1997 172    24    23     3.0     0.0     3.0    0.00    3.71      2.9     0.0     2.4     0.6    4.56    2.11     0.0    1.8    0.4    0.03    0.06
 1997 173    25    24     3.3     0.0     3.3    0.00    3.72      3.3     0.0     2.6     0.7    4.59    2.13     0.0    1.8    0.3    0.03    0.07
 1997 174    26    25     3.6     0.0     3.6    0.00    3.74      3.7     0.0     2.9     0.8    4.64    2.17     0.0    1.8    0.4    0.03    0.08
 1997 175    27    26     4.1     0.0     4.1    0.00    3.73      4.2     0.0     3.2     0.9    4.65    2.18     0.0    1.8    0.5    0.04    0.08
 1997 176    28    27     4.6     0.0     4.6    0.00    3.65      4.9     0.0     3.5     1.0    4.59    2.15     0.0    1.8    0.5    0.04    0.09
 1997 177    29    28     5.2     0.0     5.2    0.00    3.55      5.6     0.0     4.0     1.2    4.50    2.09     0.0    1.8    0.6    0.05    0.10
 1997 178    30    29     5.9     0.0     5.9    0.00    3.51      6.5     0.0     4.5     1.4    4.48    2.09     0.0    1.7    0.8    0.05    0.11
 1997 179    31    30     6.7     0.0     6.7    0.00    3.54      7.4     0.0     5.0     1.7    4.54    2.13     0.0    1.8    0.8    0.06    0.12
 1997 180    32    31     7.5     0.0     7.5    0.00    3.49      8.5     0.0     5.5     1.9    4.51    2.11     0.0    1.8    0.9    0.06    0.12
 1997 181    33    32     8.5     0.0     8.5    0.00    3.52      9.6     0.0     6.2     2.2    4.56    2.14     0.0    1.8    1.1    0.07    0.13
 1997 182    34    33     9.5     0.0     9.5    0.00    3.49     11.0     0.0     7.0     2.5    4.55    2.13     0.0    1.8    1.1    0.08    0.15
 1997 183    35    34    10.4     0.0    10.4    0.00    3.50     11.9     0.0     7.6     2.8    4.58    2.14     0.0    1.8    1.0    0.09    0.16
 1997 184    36    35    11.4     0.0    11.4    0.00    3.51     13.0     0.0     8.2     3.1    4.62    2.16     0.0    1.8    1.1    0.10    0.17
 1997 185    37    36    12.5     0.0    12.5    0.00    3.52     14.2     0.0     9.0     3.5    4.65    2.17     0.0    1.8    1.2    0.11    0.18
 1997 186    38    37    13.7     0.0    13.7    0.00    3.46     15.9     0.0     9.8     3.9    4.59    2.13     0.0    1.8    1.3    0.13    0.19
 1997 187    39    38    15.2     0.0    15.2    0.00    3.44     17.6     0.1    10.8     4.4    4.59    2.12     0.0    1.8    1.6    0.14    0.21
 1997 188    40    39    16.9     0.0    16.9    0.00    3.43     19.6     0.1    11.9     4.9    4.59    2.12     2.8    1.8    1.8    0.16    0.22
 1997 189    41    40    18.6     0.0    18.6    0.00    3.40     21.8     0.2    13.1     5.5    4.58    2.11     2.8    1.8    1.9    0.18    0.24
 1997 190    42    41    20.7     0.0    20.7    0.00    3.41     24.2     0.3    14.5     6.2    4.61    2.12     2.8    1.8    2.2    0.19    0.26
 1997 191    43    42    22.6     0.0    22.5    0.00    3.42     26.0     0.4    15.7     6.8    4.63    2.13     2.8    1.8    1.9    0.22    0.28
 1997 192    44    43    24.5     0.0    24.5    0.00    3.42     28.0     0.6    17.0     7.5    4.65    2.13     2.8    1.8    1.9    0.24    0.30
 1997 193    45    44    26.8     0.0    26.7    0.00    3.38     30.6     0.8    18.5     8.3    4.63    2.12     2.8    1.8    2.3    0.27    0.32
 1997 194    46    45    29.3     0.0    29.2    0.00    3.35     33.6     0.9    20.0     9.2    4.61    2.10     2.8    1.8    2.6    0.33    0.34
 1997 195    47    46    32.1     0.0    32.0    0.00    3.35     36.7     1.0    21.8    10.1    4.64    2.10     2.8    1.8    3.0    0.40    0.37
 1997 196    48    47    34.2     0.0    33.9    0.00    3.35     39.0     1.0    23.1    10.9    4.65    2.10     2.8    1.8    2.3    0.48    0.40
 1997 197    49    48    35.8     0.0    35.4    0.00    3.34     40.7     1.1    24.0    11.4    4.65    2.10     2.8    1.8    1.8    0.54    0.42
 1997 198    50    49    38.6     0.0    38.1    0.00    3.33     44.0     1.1    25.7    12.4    4.65    2.09     2.8    1.8    3.1    0.60    0.45
 1997 199    51    50    41.6     0.0    40.9    0.00    3.31     47.3     1.1    27.5    13.4    4.64    2.08     2.7    1.8    3.2    0.64    0.48
 1997 200    52    51    44.7     0.0    43.8    4.39    3.29     50.9     1.1    29.3    14.5    4.63    2.07     2.7    1.8    3.3    0.69    0.51
 1997 201    53    52    47.3     0.0    46.3    4.25    3.27     53.8     1.1    30.8    15.4    4.63    2.07     2.7    1.8    2.9    0.74    0.54
 1997 202    54    53    48.9     0.1    47.6    4.25    3.25     55.5     1.2    31.6    15.9    4.61    2.05     2.7    1.8    1.7    0.79    0.58
 1997 203    55    54    52.3     0.2    50.6    4.32    3.22     59.6     1.3    33.5    17.1    4.58    2.03     2.7    1.8    3.6    0.84    0.61
 1997 204    56    55    55.8     0.3    53.7    4.39    3.21     63.2     1.4    35.4    18.3    4.59    2.03     2.7    1.8    3.7    0.90    0.65
 1997 205    57    56    59.2     0.5    56.7    4.41    3.20     66.8     1.5    37.2    19.5    4.58    2.03     2.7    1.8    3.6    0.96    0.69
 1997 206    58    57    63.2     0.6    60.2    4.39    3.19     70.9     1.7    39.3    20.8    4.58    2.02     2.7    1.8    4.1    1.02    0.73
 1997 207    59    58    67.1     0.9    63.5    4.43    3.17     75.1     1.8    41.3    22.2    4.57    2.01     2.6    1.8    4.1    1.09    0.78
 1997 208    60    59    70.9     1.1    66.7    4.46    3.15     79.0     2.1    43.2    23.5    4.57    2.01     2.6    1.8    3.9    1.16    0.82
 1997 209    61    60    75.0     1.4    70.1    4.48    3.14     83.2     2.3    45.3    24.8    4.56    2.00     2.6    1.8    4.2    1.23    0.87
 1997 210    62    61    77.7     1.7    72.1    4.48    3.11     85.9     2.5    46.4    25.7    4.54    1.99     2.6    1.8    2.7    1.32    0.92
 1997 211    63    62    79.7     2.1    73.3    4.46    3.09     87.8     2.9    47.1    26.2    4.51    1.97     2.6    1.8    1.9    1.40    0.97
 1997 212    64    63    81.2     2.5    73.8    4.40    3.05     89.2     3.0    47.4    26.4    4.48    1.94     2.6    1.8    1.4    1.49    1.01
 1997 213    65    64    83.5     3.0    75.1    4.38    3.03     91.3     3.4    48.1    27.0    4.45    1.93     2.6    1.8    2.1    1.58    1.06
 1997 214    66    65    87.6     3.6    78.1    4.39    3.01     95.5     3.5    49.8    28.3    4.45    1.92     2.5    1.8    4.2    1.67    1.11
 1997 215    67    66    91.3     4.2    80.8    4.42    2.99     99.4     3.7    51.3    29.5    4.43    1.91     2.5    1.8    3.9    1.76    1.17
 1997 216    68    67    93.6     4.9    81.9    4.42    2.96    101.7     3.8    51.9    30.0    4.40    1.89     2.5    1.7    2.3    1.86    1.22
 1997 217    69    68    96.3     5.6    83.4    4.42    2.94    104.5     4.0    52.7    30.7    4.38    1.87     2.5    1.7    2.7    1.96    1.27
 1997 218    70    69    97.4     6.4    83.0    4.39    2.90    105.3     4.4    52.4    30.6    4.33    1.85     2.5    1.7    0.8    2.06    1.32
 1997 219    71    70    99.8     7.3    84.1    4.39    2.87    107.7     4.6    53.0    31.1    4.31    1.83     2.5    1.7    2.4    2.16    1.37
 1997 220    72    71   103.8     8.3    86.5    4.38    2.85    111.7     4.7    54.3    32.3    4.29    1.82     2.5    1.7    4.0    2.26    1.42
 1997 221    73    72   106.5     9.4    87.6    4.40    2.83    114.4     4.9    54.8    32.8    4.27    1.81     2.4    1.7    2.6    2.37    1.48
 1997 222    74    73   110.2    10.5    89.7    4.40    2.80    118.2     5.1    55.9    33.8    4.25    1.80     2.4    1.7    3.9    2.47    1.53
 1997 223    75    74   114.0    11.7    91.8    4.40    2.78    122.0     5.3    57.0    34.8    4.23    1.78     2.4    1.6    3.8    2.58    1.59
 1997 224    76    75   117.2    13.0    93.1    4.40    2.76    125.2     5.5    57.6    35.5    4.20    1.77     2.4    1.6    3.2    2.68    1.64
 1997 225    77    76   120.4    14.4    94.4    4.41    2.73    128.3     5.8    58.2    36.2    4.18    1.76     2.4    1.6    3.1    2.79    1.70
 1997 226    78    77   123.5    15.8    95.6    4.42    2.71    131.5     5.9    58.8    36.9    4.15    1.74     2.3    1.6    3.1    2.91    1.76
 1997 227    79    78   124.4    17.3    94.5    4.41    2.67    132.3     6.1    58.1    36.4    4.11    1.71     2.3    1.6    0.8    3.02    1.82
 1997 228    80    79   127.7    18.9    95.9    4.42    2.65    135.6     6.3    58.7    37.2    4.09    1.70     2.3    1.6    3.3    3.13    1.87
 1997 229    81    80   129.8    20.6    95.8    4.42    2.62    137.6     6.5    58.6    37.3    4.05    1.68     2.3    1.6    2.0    3.25    1.93
 1997 230    82    81   132.9    22.3    96.8    4.44    2.60    140.5     6.8    59.0    37.8    4.03    1.67     2.3    1.5    3.0    3.36    1.98
 1997 231    83    82   136.4    24.1    98.0    4.43    2.58    143.8     7.2    59.5    38.5    4.01    1.66     2.3    1.5    3.3    3.48    2.04
 1997 232    84    83   139.7    26.0    99.0    4.43    2.56    147.1     7.4    59.9    39.1    3.99    1.65     2.2    1.5    3.3    3.60    2.09
 1997 233    85    84   143.6    27.9   100.5    4.44    2.54    151.0     7.7    60.5    40.0    3.97    1.64     2.2    1.5    3.8    3.72    2.15
 1997 234    86    85   146.1    29.9   100.6    4.45    2.52    153.4     7.9    60.5    40.1    3.94    1.63     2.2    1.5    2.4    3.84    2.21
 1997 235    87    86   146.3    32.6    98.6    4.53    2.47    153.5     8.0    59.3    39.3    3.89    1.59     2.1    1.5    0.1    3.97    2.35
 1997 236    88    87   148.9    34.8    98.6    4.52    2.45    156.0     8.2    59.2    39.4    3.86    1.58     2.1    1.5    2.5    4.10    2.40
 1997 237    89    88   152.2    37.1    99.3    4.53    2.43    159.0     8.7    59.3    39.9    3.84    1.57     2.1    1.4    3.0    4.23    2.45
 1997 238    90    89   154.7    39.5    99.0    4.52    2.40    161.5     8.8    59.0    39.9    3.81    1.55     2.1    1.4    2.5    4.36    2.50
 1997 239    91    90   157.6    42.0    99.0    4.52    2.38    164.4     8.9    58.9    40.1    3.78    1.54     2.1    1.4    2.9    4.48    2.56
 1997 240    92    91   158.5    44.4    97.7    4.52    2.35    165.0     9.3    58.1    39.6    3.74    1.52     2.0    1.4    0.6    4.60    2.61
 1997 241    93    92   162.0    47.0    98.4    4.51    2.34    168.4     9.5    58.2    40.1    3.73    1.51     2.0    1.4    3.4    4.72    2.66
 1997 242    94    93   165.3    49.7    98.7    4.51    2.32    171.7     9.6    58.2    40.5    3.71    1.51     2.0    1.4    3.3    4.84    2.71
 1997 243    95    94   168.6    52.3    99.1    4.51    2.30    174.8     9.9    58.2    40.8    3.68    1.50     2.0    1.4    3.1    4.97    2.76
 1997 244    96    95   171.5    55.0    99.1    4.51    2.28    177.8    10.0    58.1    41.0    3.66    1.49     2.0    1.4    3.0    5.09    2.81
 1997 245    97    96   174.3    57.8    98.8    4.51    2.26    180.3    10.4    57.8    41.1    3.64    1.48     1.9    1.3    2.5    5.21    2.86
 1997 246    98    97   175.5    60.6    97.6    4.50    2.23    181.4    10.6    57.0    40.6    3.60    1.46     1.9    1.3    1.0    5.32    2.91
 1997 247    99    98   176.9    63.5    96.6    4.50    2.21    182.7    10.7    56.4    40.2    3.57    1.44     1.9    1.3    1.3    5.43    2.96
 1997 248   100    99   179.8    66.3    96.4    4.50    2.19    185.3    11.2    56.1    40.3    3.54    1.43     1.8    1.3    2.6    5.54    3.00
 1997 249   101   100   181.7    69.1    95.6    4.50    2.17    187.1    11.4    55.5    40.0    3.51    1.41     1.8    1.3    1.8    5.65    3.05
 1997 250   102   101   184.3    72.0    95.0    4.49    2.14    189.3    11.8    55.1    39.9    3.49    1.40     1.8    1.3    2.2    5.75    3.09
 1997 251   103   102   187.5    74.9    95.2    4.49    2.13    192.5    11.9    55.0    40.2    3.47    1.40     1.8    1.3    3.2    5.86    3.14
 1997 252   104   103   189.0    77.8    94.2    4.49    2.11    193.9    12.1    54.4    39.8    3.44    1.38     1.7    1.2    1.4    5.96    3.18
 1997 253   105   104   191.3    80.8    93.6    4.49    2.09    196.1    12.2    53.9    39.7    3.41    1.37     1.7    1.2    2.3    6.06    3.23
 1997 254   106   105   193.5    83.8    92.9    4.49    2.07    198.3    12.3    53.4    39.5    3.38    1.36     1.7    1.2    2.2    6.16    3.27
 1997 255   107   106   196.6    86.8    92.8    4.48    2.05    201.4    12.3    53.2    39.6    3.36    1.35     1.7    1.2    3.1    6.25    3.31
 1997 256   108   107   199.6    89.7    92.8    4.49    2.04    204.4    12.5    53.0    39.8    3.35    1.34     1.7    1.2    3.0    6.34    3.35
 1997 257   109   108   202.0    92.6    92.3    4.48    2.02    206.8    12.5    52.6    39.7    3.32    1.33     1.6    1.2    2.4    6.43    3.39
 1997 258   110   109   204.9    95.4    92.3    4.49    2.01    209.7    12.6    52.4    39.9    3.31    1.33     1.6    1.2    2.9    6.53    3.43
 1997 259   111   110   207.7    98.2    92.2    4.48    2.00    212.6    12.6    52.1    40.1    3.29    1.32     1.6    1.2    2.9    6.61    3.47
 1997 260   112   111   210.5   101.0    92.2    4.48    1.99    215.3    12.8    52.0    40.3    3.27    1.32     1.6    1.2    2.8    6.71    3.51
 1997 261   113   112   211.2   103.9    90.5    4.50    1.95    215.9    12.9    51.1    39.4    3.22    1.29     1.6    1.1    0.6    6.80    3.55
 1997 262   114   113   213.6   107.0    89.7    4.51    1.93    218.3    13.0    50.6    39.1    3.20    1.27     1.5    1.1    2.4    6.88    3.59
 1997 263   115   114   215.6   110.1    88.7    4.53    1.90    220.3    13.0    50.0    38.7    3.17    1.26     1.5    1.1    2.0    6.96    3.63
 1997 264   116   115   218.6   112.8    89.1    4.53    1.90    223.4    13.0    49.9    39.1    3.16    1.26     1.5    1.1    3.1    7.04    3.66
 1997 265   117   116   221.2   115.4    89.1    4.53    1.89    225.9    13.2    49.8    39.3    3.14    1.25     1.5    1.1    2.5    7.12    3.70
 1997 266   118   117   221.7   117.7    87.6    4.55    1.86    226.3    13.3    49.0    38.6    3.10    1.23     1.5    1.1    0.4    7.19    3.74
 1997 267   119   118   224.4   120.4    87.6    4.56    1.85    229.0    13.4    48.9    38.8    3.09    1.22     1.5    1.1    2.7    7.27    3.77
 1997 268   120   119   225.3   123.1    86.2    4.58    1.81    229.8    13.5    48.1    38.1    3.05    1.20     1.4    1.1    0.8    7.34    3.80
 1997 269   121   120   227.5   125.6    86.0    4.59    1.80    232.0    13.6    47.9    38.1    3.03    1.19     1.4    1.1    2.2    7.40    3.84
 1997 270   122   121   227.6   127.3    84.7    4.57    1.74    232.0    13.7    47.3    37.4    2.97    1.14     1.4    1.0    0.0    7.47    3.87

*DSSAT Cropping System Model Ver. 4.5.1.023 -Stub         OCT 13, 2014; 10:48:17
                                                                                
*RUN   3        : 97 DATE2 CHINESE          CRGRO045 GHNY9701    3              
 MODEL          : CRGRO045 - Peanut                                             
 EXPERIMENT     : GHNY9701 PN able [sltx] with oversized content [1 SALO], only 
 DATA PATH      :                                                               
 TREATMENT  3   : 97 DATE2 CHINESE          CRGRO045                            
  
@YEAR DOY   DAS   DAP    CNAD    GNAD    VNAD    GN%D    VN%D     NFXC    NUPC    LNAD    SNAD    LN%D    SN%D    SHND   RN%D   NFXD   SNN0C   SNN1C
 1997 177     1     0     0.0     0.0     0.0    0.00    0.00      0.0     0.0     0.0     0.0    0.00    0.00     0.0    0.0    0.0    0.00    0.00
 1997 178     2     1     0.0     0.0     0.0    0.00    0.00      0.0     0.0     0.0     0.0    0.00    0.00     0.0    0.0    0.0    0.00    0.00
 1997 179     3     2     0.0     0.0     0.0    0.00    0.00      0.0     0.0     0.0     0.0    0.00    0.00     0.0    0.0    0.0    0.00    0.00
 1997 180     4     3     0.0     0.0     0.0    0.00    0.00      0.0     0.0     0.0     0.0    0.00    0.00     0.0    0.0    0.0    0.00    0.00
 1997 181     5     4     0.0     0.0     0.0    0.00    0.00      0.0     0.0     0.0     0.0    0.00    0.00     0.0    0.0    0.0    0.00    0.00
 1997 182     6     5     0.0     0.0     0.0    0.00    0.00      0.0     0.0     0.0     0.0    0.00    0.00     0.0    0.0    0.0    0.00    0.00
 1997 183     7     6     0.0     0.0     0.0    0.00    0.00      0.0     0.0     0.0     0.0    0.00    0.00     0.0    0.0    0.0    0.00    0.00
 1997 184     8     7     0.5     0.0     0.5    0.00    4.84      0.1     0.0     0.5     0.1    5.36    2.56     0.0    2.3    0.0    0.00    0.00
 1997 185     9     8     0.5     0.0     0.5    0.00    4.81      0.1     0.0     0.5     0.1    5.31    2.52     0.0    2.2    0.0    0.00    0.01
 1997 186    10     9     0.6     0.0     0.6    0.00    4.82      0.1     0.0     0.5     0.1    5.30    2.50     0.0    2.2    0.0    0.00    0.01
 1997 187    11    10     0.7     0.0     0.7    0.00    4.80      0.2     0.0     0.6     0.1    5.27    2.47     0.0    2.2    0.1    0.00    0.01
 1997 188    12    11     0.8     0.0     0.8    0.00    4.74      0.3     0.0     0.7     0.1    5.17    2.43     0.0    2.2    0.1    0.00    0.01
 1997 189    13    12     0.9     0.0     0.9    0.00    4.60      0.4     0.0     0.8     0.1    5.00    2.33     0.0    2.1    0.1    0.00    0.02
 1997 190    14    13     1.0     0.0     1.0    0.00    4.46      0.5     0.0     0.9     0.1    4.87    2.22     0.0    2.0    0.1    0.00    0.02
 1997 191    15    14     1.1     0.0     1.1    0.00    4.44      0.6     0.0     1.0     0.1    4.86    2.24     0.0    2.0    0.1    0.00    0.02
 1997 192    16    15     1.2     0.0     1.2    0.00    4.38      0.8     0.0     1.1     0.1    4.83    2.23     0.0    2.0    0.1    0.01    0.02
 1997 193    17    16     1.3     0.0     1.3    0.00    4.21      0.9     0.0     1.2     0.1    4.73    2.10     0.0    1.9    0.1    0.01    0.03
 1997 194    18    17     1.5     0.0     1.5    0.00    4.05      1.2     0.0     1.3     0.2    4.65    2.06     0.0    1.9    0.2    0.01    0.03
 1997 195    19    18     1.7     0.0     1.7    0.00    3.97      1.4     0.0     1.4     0.2    4.65    2.14     0.0    1.9    0.2    0.01    0.03
 1997 196    20    19     1.9     0.0     1.9    0.00    3.98      1.6     0.0     1.6     0.3    4.69    2.18     0.0    1.9    0.2    0.01    0.04
 1997 197    21    20     2.0     0.0     2.0    0.00    3.98      1.8     0.0     1.7     0.3    4.71    2.21     0.0    1.9    0.2    0.02    0.04
 1997 198    22    21     2.3     0.0     2.3    0.00    3.86      2.1     0.0     1.9     0.4    4.63    2.10     0.0    1.8    0.3    0.02    0.05
 1997 199    23    22     2.5     0.0     2.5    0.00    3.77      2.5     0.0     2.1     0.4    4.57    2.08     0.0    1.8    0.3    0.02    0.05
 1997 200    24    23     2.9     0.0     2.9    0.00    3.70      3.0     0.0     2.3     0.5    4.52    2.07     0.0    1.8    0.4    0.02    0.06
 1997 201    25    24     3.3     0.0     3.3    0.00    3.73      3.4     0.0     2.6     0.6    4.58    2.12     0.0    1.8    0.4    0.03    0.06
 1997 202    26    25     3.6     0.0     3.6    0.00    3.74      3.7     0.0     2.8     0.7    4.61    2.15     0.0    1.8    0.3    0.03    0.07
 1997 203    27    26     4.0     0.0     4.0    0.00    3.59      4.3     0.0     3.2     0.8    4.51    2.03     0.0    1.8    0.5    0.04    0.07
 1997 204    28    27     4.5     0.0     4.5    0.00    3.53      5.0     0.0     3.5     1.0    4.47    2.02     0.0    1.7    0.5    0.04    0.08
 1997 205    29    28     5.1     0.0     5.1    0.00    3.52      5.7     0.0     3.9     1.2    4.48    2.04     0.0    1.8    0.7    0.04    0.09
 1997 206    30    29     5.7     0.0     5.7    0.00    3.50      6.6     0.0     4.4     1.4    4.47    2.04     0.0    1.8    0.7    0.05    0.09
 1997 207    31    30     6.5     0.0     6.5    0.00    3.50      7.6     0.0     4.9     1.6    4.49    2.06     0.0    1.8    0.9    0.06    0.10
 1997 208    32    31     7.4     0.0     7.4    0.00    3.51      8.6     0.0     5.6     1.8    4.53    2.09     0.0    1.8    1.0    0.06    0.11
 1997 209    33    32     8.3     0.0     8.3    0.00    3.50      9.9     0.0     6.2     2.1    4.55    2.10     0.0    1.8    1.1    0.07    0.12
 1997 210    34    33     9.3     0.0     9.3    0.00    3.52     10.9     0.1     6.9     2.4    4.59    2.12     0.0    1.8    1.0    0.08    0.13
 1997 211    35    34    10.2     0.0    10.2    0.00    3.53     11.8     0.1     7.5     2.7    4.62    2.13     2.8    1.8    0.9    0.09    0.14
 1997 212    36    35    11.0     0.0    11.0    0.00    3.53     12.7     0.2     8.1     3.0    4.64    2.14     2.8    1.8    0.9    0.10    0.15
 1997 213    37    36    12.1     0.0    12.1    0.00    3.53     13.8     0.3     8.8     3.3    4.66    2.15     2.8    1.8    1.1    0.11    0.16
 1997 214    38    37    13.2     0.0    13.2    0.00    3.43     15.3     0.3     9.5     3.7    4.56    2.09     2.8    1.8    1.2    0.13    0.18
 1997 215    39    38    14.6     0.0    14.6    0.00    3.39     17.1     0.4    10.5     4.1    4.52    2.06     2.8    1.8    1.5    0.14    0.19
 1997 216    40    39    16.0     0.0    16.0    0.00    3.39     18.5     0.5    11.4     4.6    4.55    2.08     2.8    1.8    1.4    0.16    0.21
 1997 217    41    40    17.6     0.0    17.5    0.00    3.40     20.3     0.5    12.4     5.1    4.57    2.09     2.8    1.8    1.7    0.17    0.23
 1997 218    42    41    18.8     0.0    18.6    0.00    3.39     21.5     0.6    13.1     5.4    4.58    2.08     2.8    1.8    1.3    0.19    0.24
 1997 219    43    42    20.4     0.0    20.1    0.00    3.37     23.4     0.6    14.1     6.0    4.58    2.08     2.8    1.8    1.8    0.21    0.26
 1997 220    44    43    22.1     0.0    21.7    0.00    3.29     25.7     0.6    15.2     6.5    4.49    2.03     2.8    1.8    1.9    0.23    0.28
 1997 221    45    44    24.1     0.0    23.5    0.00    3.29     27.8     0.7    16.4     7.2    4.52    2.04     2.8    1.8    2.2    0.27    0.30
 1997 222    46    45    26.2     0.0    25.4    0.00    3.25     30.4     0.7    17.6     7.8    4.48    2.01     2.7    1.8    2.2    0.34    0.33
 1997 223    47    46    28.6     0.0    27.6    4.44    3.24     33.2     0.8    18.9     8.6    4.49    2.01     2.7    1.8    2.6    0.40    0.35
 1997 224    48    47    31.0     0.0    29.7    4.40    3.24     35.8     0.9    20.3     9.4    4.50    2.01     2.7    1.8    2.6    0.47    0.38
 1997 225    49    48    33.6     0.1    32.0    4.45    3.23     38.6     1.0    21.7    10.3    4.52    2.01     2.7    1.8    2.7    0.52    0.41
 1997 226    50    49    36.2     0.2    34.2    4.49    3.22     41.3     1.2    23.1    11.1    4.52    2.01     2.7    1.8    2.7    0.57    0.44
 1997 227    51    50    37.8     0.3    35.3    4.41    3.19     42.8     1.3    23.8    11.5    4.50    1.99     2.7    1.8    1.5    0.61    0.47
 1997 228    52    51    40.5     0.5    37.4    4.45    3.17     45.7     1.5    25.1    12.3    4.49    1.99     2.7    1.8    2.8    0.65    0.50
 1997 229    53    52    42.7     0.7    39.1    4.46    3.15     48.0     1.6    26.1    12.9    4.47    1.97     2.7    1.8    2.3    0.70    0.54
 1997 230    54    53    45.6     1.0    41.2    4.50    3.14     51.0     1.8    27.5    13.8    4.47    1.97     2.6    1.8    2.9    0.75    0.57
 1997 231    55    54    48.4     1.3    43.3    4.46    3.10     54.1     1.9    28.7    14.6    4.44    1.95     2.6    1.8    2.9    0.80    0.60
 1997 232    56    55    51.4     1.7    45.4    4.44    3.08     57.2     2.0    30.0    15.5    4.43    1.94     2.6    1.8    3.1    0.86    0.64
 1997 233    57    56    54.4     2.1    47.6    4.48    3.04     60.7     2.1    31.2    16.3    4.39    1.92     2.6    1.8    3.1    0.91    0.68
 1997 234    58    57    57.1     2.6    49.3    4.51    3.02     63.4     2.3    32.2    17.0    4.38    1.90     2.6    1.8    2.7    0.98    0.72
 1997 235    59    58    58.0     3.1    49.1    4.51    2.98     64.2     2.4    32.1    16.9    4.33    1.87     2.6    1.7    0.8    1.05    0.76
 1997 236    60    59    60.8     3.8    50.7    4.50    2.96     66.9     2.7    33.0    17.6    4.32    1.86     2.6    1.7    2.7    1.12    0.80
 1997 237    61    60    64.0     4.5    52.6    4.51    2.94     70.1     3.0    34.1    18.5    4.31    1.85     2.5    1.7    3.2    1.20    0.84
 1997 238    62    61    66.7     5.3    53.9    4.50    2.92     72.8     3.1    34.8    19.0    4.29    1.84     2.5    1.7    2.7    1.28    0.88
 1997 239    63    62    69.7     6.2    55.3    4.51    2.90     75.6     3.4    35.6    19.7    4.27    1.83     2.5    1.7    2.8    1.35    0.92
 1997 240    64    63    71.2     7.2    55.2    4.50    2.86     77.1     3.6    35.5    19.7    4.23    1.81     2.5    1.7    1.4    1.44    0.96
 1997 241    65    64    74.5     8.3    56.8    4.49    2.85     80.3     3.9    36.4    20.4    4.22    1.80     2.5    1.7    3.2    1.52    1.00
 1997 242    66    65    77.7     9.5    58.2    4.48    2.83     83.5     4.0    37.1    21.1    4.21    1.79     2.5    1.7    3.2    1.61    1.05
 1997 243    67    66    80.9    10.8    59.5    4.48    2.81     86.8     4.2    37.8    21.7    4.19    1.78     2.4    1.7    3.3    1.70    1.09
 1997 244    68    67    83.9    12.2    60.5    4.49    2.79     89.7     4.4    38.3    22.2    4.17    1.77     2.4    1.6    2.9    1.79    1.13
 1997 245    69    68    86.8    13.7    61.2    4.49    2.77     92.6     4.6    38.6    22.6    4.15    1.76     2.4    1.6    2.9    1.89    1.18
 1997 246    70    69    88.4    15.4    60.8    4.47    2.73     94.0     4.8    38.4    22.4    4.11    1.74     2.4    1.6    1.5    1.98    1.22
 1997 247    71    70    90.2    17.2    60.4    4.47    2.70     95.6     5.0    38.1    22.3    4.08    1.71     2.3    1.6    1.6    2.07    1.27
 1997 248    72    71    93.1    19.1    60.9    4.48    2.68     98.3     5.4    38.2    22.6    4.05    1.70     2.3    1.6    2.7    2.16    1.31
 1997 249    73    72    95.1    21.0    60.5    4.47    2.64    100.1     5.7    38.0    22.5    4.02    1.68     2.3    1.5    1.8    2.26    1.35
 1997 250    74    73    97.7    23.1    60.5    4.46    2.62    102.6     5.8    37.9    22.6    3.99    1.66     2.3    1.5    2.5    2.35    1.39
 1997 251    75    74   100.7    25.3    60.7    4.47    2.60    105.6     6.0    37.9    22.8    3.96    1.65     2.3    1.5    3.0    2.44    1.43
 1997 252    76    75   102.4    27.7    60.3    4.47    2.56    107.2     6.1    37.6    22.7    3.92    1.63     2.2    1.5    1.6    2.52    1.47
 1997 253    77    76   104.7    30.2    60.0    4.47    2.53    109.5     6.2    37.4    22.7    3.89    1.61     2.2    1.5    2.2    2.61    1.51
 1997 254    78    77   106.9    32.8    59.8    4.46    2.50    111.6     6.3    37.1    22.7    3.86    1.59     2.1    1.4    2.2    2.70    1.55
 1997 255    79    78   109.7    35.5    59.7    4.46    2.48    114.4     6.4    37.0    22.7    3.83    1.58     2.1    1.4    2.8    2.79    1.59
 1997 256    80    79   112.5    38.3    59.6    4.47    2.45    117.2     6.5    36.8    22.8    3.80    1.56     2.1    1.4    2.8    2.87    1.63
 1997 257    81    80   114.8    41.2    59.4    4.46    2.43    119.5     6.6    36.6    22.8    3.76    1.55     2.0    1.4    2.3    2.95    1.67
 1997 258    82    81   117.6    44.3    59.3    4.47    2.40    122.3     6.6    36.4    22.9    3.73    1.53     2.0    1.4    2.8    3.04    1.70
 1997 259    83    82   120.2    47.3    59.1    4.46    2.38    124.9     6.7    36.2    22.9    3.70    1.52     1.9    1.4    2.6    3.13    1.74
 1997 260    84    83   122.9    50.4    59.0    4.46    2.35    127.5     6.8    36.0    23.0    3.67    1.50     1.9    1.3    2.6    3.21    1.77
 1997 261    85    84   123.9    53.1    57.6    4.51    2.28    128.4     6.9    35.2    22.4    3.60    1.45     1.9    1.3    0.9    3.29    1.81
 1997 262    86    85   126.2    57.0    56.4    4.57    2.22    130.6     7.0    34.5    21.9    3.53    1.40     1.8    1.3    2.3    3.37    1.84
 1997 263    87    86   128.3    60.6    55.2    4.62    2.17    132.7     7.0    33.8    21.4    3.46    1.36     1.8    1.3    2.1    3.44    1.87
 1997 264    88    87   131.1    63.9    54.7    4.64    2.13    135.5     7.1    33.4    21.3    3.42    1.34     1.7    1.2    2.8    3.54    1.91
 1997 265    89    88   133.7    67.2    54.2    4.67    2.10    138.0     7.2    33.1    21.1    3.38    1.32     1.7    1.2    2.5    3.64    1.94
 1997 266    90    89   134.5    69.4    53.1    4.70    2.05    138.7     7.3    32.4    20.6    3.33    1.28     1.7    1.2    0.7    3.73    1.97
 1997 267    91    90   137.0    73.1    52.2    4.73    2.01    141.2     7.5    31.9    20.3    3.27    1.25     1.6    1.2    2.4    3.83    2.00
 1997 268    92    91   138.2    75.6    51.2    4.76    1.96    142.2     7.6    31.3    19.9    3.22    1.22     1.6    1.2    1.0    3.91    2.03
 1997 269    93    92   140.5    78.9    50.3    4.79    1.92    144.4     7.7    30.8    19.5    3.17    1.19     1.6    1.1    2.2    3.98    2.06
 1997 270    94    93   143.2    81.9    50.1    4.81    1.91    147.2     7.7    30.6    19.5    3.14    1.18     1.6    1.1    2.8    4.06    2.08
 1997 271    95    94   145.9    84.7    49.9    4.81    1.89    149.9     7.8    30.4    19.6    3.12    1.17     1.5    1.1    2.7    4.13    2.11
 1997 272    96    95   148.5    87.6    49.7    4.83    1.87    152.6     7.8    30.2    19.6    3.09    1.17     1.5    1.1    2.7    4.20    2.14
 1997 273    97    96   151.0    90.3    49.5    4.83    1.86    154.9     7.9    29.9    19.5    3.07    1.16     1.5    1.1    2.4    4.24    2.17
 1997 274    98    97   153.4    92.8    49.4    4.85    1.84    157.4     7.9    29.7    19.6    3.05    1.15     1.5    1.1    2.5    4.30    2.19
 1997 275    99    98   156.0    95.3    49.4    4.86    1.83    159.8     8.1    29.6    19.7    3.03    1.15     1.5    1.1    2.4    4.34    2.22
 1997 276   100    99   157.9    97.7    49.1    4.85    1.81    161.6     8.3    29.4    19.7    3.01    1.14     1.5    1.1    1.8    4.39    2.24
 1997 277   101   100   158.2    98.9    48.3    4.81    1.75    161.6     8.5    29.0    19.4    2.94    1.09     1.4    1.0    0.0    4.44    2.27

*DSSAT Cropping System Model Ver. 4.5.1.023 -Stub         OCT 13, 2014; 10:48:17
                                                                                
*RUN   4        : 97 DATE2 F-MIX            CRGRO045 GHNY9701    4              
 MODEL          : CRGRO045 - Peanut                                             
 EXPERIMENT     : GHNY9701 PN able [sltx] with oversized content [1 SALO], only 
 DATA PATH      :                                                               
 TREATMENT  4   : 97 DATE2 F-MIX            CRGRO045                            
  
@YEAR DOY   DAS   DAP    CNAD    GNAD    VNAD    GN%D    VN%D     NFXC    NUPC    LNAD    SNAD    LN%D    SN%D    SHND   RN%D   NFXD   SNN0C   SNN1C
 1997 177     1     0     0.0     0.0     0.0    0.00    0.00      0.0     0.0     0.0     0.0    0.00    0.00     0.0    0.0    0.0    0.00    0.00
 1997 178     2     1     0.0     0.0     0.0    0.00    0.00      0.0     0.0     0.0     0.0    0.00    0.00     0.0    0.0    0.0    0.00    0.00
 1997 179     3     2     0.0     0.0     0.0    0.00    0.00      0.0     0.0     0.0     0.0    0.00    0.00     0.0    0.0    0.0    0.00    0.00
 1997 180     4     3     0.0     0.0     0.0    0.00    0.00      0.0     0.0     0.0     0.0    0.00    0.00     0.0    0.0    0.0    0.00    0.00
 1997 181     5     4     0.0     0.0     0.0    0.00    0.00      0.0     0.0     0.0     0.0    0.00    0.00     0.0    0.0    0.0    0.00    0.00
 1997 182     6     5     0.0     0.0     0.0    0.00    0.00      0.0     0.0     0.0     0.0    0.00    0.00     0.0    0.0    0.0    0.00    0.00
 1997 183     7     6     0.0     0.0     0.0    0.00    0.00      0.0     0.0     0.0     0.0    0.00    0.00     0.0    0.0    0.0    0.00    0.00
 1997 184     8     7     0.0     0.0     0.0    0.00    0.00      0.0     0.0     0.0     0.0    0.00    0.00     0.0    0.0    0.0    0.00    0.00
 1997 185     9     8     0.6     0.0     0.6    0.00    4.84      0.1     0.0     0.6     0.1    5.36    2.56     0.0    2.3    0.0    0.00    0.01
 1997 186    10     9     0.7     0.0     0.7    0.00    4.77      0.1     0.0     0.6     0.1    5.27    2.51     0.0    2.2    0.0    0.00    0.01
 1997 187    11    10     0.7     0.0     0.7    0.00    4.79      0.1     0.0     0.7     0.1    5.29    2.51     0.0    2.2    0.0    0.00    0.01
 1997 188    12    11     0.8     0.0     0.8    0.00    4.79      0.2     0.0     0.8     0.1    5.27    2.48     0.0    2.2    0.1    0.00    0.01
 1997 189    13    12     0.9     0.0     0.9    0.00    4.64      0.3     0.0     0.9     0.1    5.07    2.41     0.0    2.1    0.1    0.00    0.02
 1997 190    14    13     1.0     0.0     1.0    0.00    4.49      0.4     0.0     0.9     0.1    4.93    2.28     0.0    2.0    0.1    0.00    0.02
 1997 191    15    14     1.1     0.0     1.1    0.00    4.46      0.5     0.0     1.0     0.1    4.92    2.29     0.0    2.0    0.1    0.01    0.02
 1997 192    16    15     1.3     0.0     1.3    0.00    4.40      0.6     0.0     1.1     0.1    4.90    2.29     0.0    2.0    0.1    0.01    0.03
 1997 193    17    16     1.4     0.0     1.4    0.00    4.23      0.8     0.0     1.2     0.1    4.79    2.15     0.0    1.9    0.1    0.01    0.03
 1997 194    18    17     1.5     0.0     1.5    0.00    4.05      1.0     0.0     1.3     0.2    4.71    2.03     0.0    1.9    0.2    0.01    0.03
 1997 195    19    18     1.7     0.0     1.7    0.00    3.95      1.2     0.0     1.4     0.2    4.68    2.08     0.0    1.9    0.2    0.01    0.04
 1997 196    20    19     1.8     0.0     1.8    0.00    3.91      1.4     0.0     1.5     0.3    4.69    2.15     0.0    1.9    0.2    0.01    0.04
 1997 197    21    20     2.0     0.0     2.0    0.00    3.92      1.6     0.0     1.6     0.3    4.72    2.17     0.0    1.9    0.2    0.02    0.05
 1997 198    22    21     2.2     0.0     2.2    0.00    3.81      1.9     0.0     1.8     0.4    4.62    2.12     0.0    1.8    0.2    0.02    0.05
 1997 199    23    22     2.4     0.0     2.4    0.00    3.74      2.2     0.0     2.0     0.5    4.57    2.10     0.0    1.8    0.3    0.02    0.06
 1997 200    24    23     2.7     0.0     2.7    0.00    3.69      2.6     0.0     2.2     0.5    4.53    2.09     0.0    1.8    0.3    0.02    0.06
 1997 201    25    24     3.1     0.0     3.1    0.00    3.72      3.0     0.0     2.5     0.6    4.59    2.13     0.0    1.8    0.4    0.03    0.07
 1997 202    26    25     3.4     0.0     3.4    0.00    3.73      3.3     0.0     2.7     0.7    4.62    2.16     0.0    1.8    0.3    0.03    0.08
 1997 203    27    26     3.8     0.0     3.8    0.00    3.58      3.9     0.0     3.0     0.8    4.49    2.05     0.0    1.8    0.4    0.03    0.08
 1997 204    28    27     4.3     0.0     4.3    0.00    3.52      4.5     0.0     3.3     0.9    4.44    2.03     0.0    1.7    0.5    0.04    0.09
 1997 205    29    28     4.8     0.0     4.8    0.00    3.50      5.2     0.0     3.7     1.1    4.45    2.05     0.0    1.7    0.6    0.04    0.10
 1997 206    30    29     5.5     0.0     5.5    0.00    3.47      6.0     0.0     4.2     1.3    4.44    2.05     0.0    1.7    0.7    0.05    0.10
 1997 207    31    30     6.2     0.0     6.2    0.00    3.45      7.0     0.0     4.7     1.6    4.45    2.06     0.0    1.7    0.8    0.05    0.11
 1997 208    32    31     7.1     0.0     7.1    0.00    3.46      8.0     0.0     5.3     1.8    4.48    2.08     0.0    1.7    0.9    0.06    0.12
 1997 209    33    32     8.0     0.0     8.0    0.00    3.45      9.2     0.0     5.9     2.1    4.49    2.09     0.0    1.7    1.0    0.07    0.13
 1997 210    34    33     9.0     0.0     9.0    0.00    3.48     10.2     0.1     6.6     2.4    4.54    2.12     0.0    1.8    1.0    0.08    0.14
 1997 211    35    34     9.9     0.0     9.9    0.00    3.49     11.1     0.1     7.2     2.7    4.58    2.14     0.0    1.8    0.9    0.09    0.15
 1997 212    36    35    10.8     0.0    10.8    0.00    3.50     12.0     0.2     7.8     3.0    4.61    2.15     0.0    1.8    0.9    0.10    0.16
 1997 213    37    36    11.9     0.0    11.9    0.00    3.51     13.2     0.2     8.5     3.3    4.64    2.17     0.0    1.8    1.1    0.11    0.17
 1997 214    38    37    13.0     0.0    13.0    0.00    3.43     14.7     0.3     9.3     3.7    4.56    2.11     0.0    1.8    1.2    0.12    0.18
 1997 215    39    38    14.4     0.0    14.4    0.00    3.40     16.4     0.4    10.3     4.2    4.54    2.10     0.0    1.8    1.5    0.13    0.20
 1997 216    40    39    15.9     0.0    15.9    0.00    3.41     17.9     0.5    11.2     4.7    4.57    2.11     2.8    1.8    1.5    0.15    0.21
 1997 217    41    40    17.5     0.0    17.5    0.00    3.41     19.7     0.5    12.3     5.2    4.59    2.12     2.8    1.8    1.7    0.17    0.23
 1997 218    42    41    18.7     0.0    18.7    0.00    3.41     21.0     0.5    13.1     5.6    4.60    2.12     2.8    1.8    1.3    0.18    0.25
 1997 219    43    42    20.4     0.0    20.3    0.00    3.39     23.0     0.5    14.2     6.2    4.60    2.11     2.8    1.8    1.8    0.20    0.26
 1997 220    44    43    22.2     0.0    22.1    0.00    3.31     25.4     0.6    15.4     6.8    4.52    2.06     2.8    1.8    2.0    0.22    0.28
 1997 221    45    44    24.4     0.0    24.3    0.00    3.33     27.7     0.6    16.8     7.5    4.55    2.08     2.8    1.8    2.3    0.25    0.30
 1997 222    46    45    26.5     0.0    26.4    0.00    3.28     30.6     0.7    18.1     8.3    4.52    2.05     2.8    1.8    2.4    0.31    0.32
 1997 223    47    46    29.1     0.0    28.9    0.00    3.28     33.7     0.7    19.7     9.2    4.53    2.05     2.8    1.8    2.8    0.37    0.35
 1997 224    48    47    31.8     0.0    31.6    0.00    3.29     36.6     0.8    21.5    10.2    4.57    2.07     2.8    1.8    2.9    0.45    0.37
 1997 225    49    48    34.7     0.0    34.4    0.00    3.29     39.7     1.0    23.2    11.2    4.60    2.07     2.8    1.8    3.1    0.55    0.40
 1997 226    50    49    37.7     0.0    37.2    0.00    3.30     42.9     1.1    25.0    12.2    4.62    2.08     2.8    1.8    3.1    0.63    0.43
 1997 227    51    50    39.5     0.0    39.0    0.00    3.28     44.8     1.3    26.1    12.9    4.61    2.07     2.7    1.8    1.9    0.69    0.46
 1997 228    52    51    42.6     0.0    41.8    4.53    3.26     48.2     1.4    27.9    13.9    4.60    2.06     2.7    1.8    3.1    0.73    0.49
 1997 229    53    52    45.3     0.0    44.4    4.49    3.25     51.1     1.6    29.5    14.9    4.60    2.06     2.7    1.8    2.9    0.78    0.53
 1997 230    54    53    48.6     0.1    47.5    4.56    3.24     54.6     1.7    31.4    16.1    4.61    2.05     2.7    1.8    3.4    0.83    0.56
 1997 231    55    54    52.0     0.2    50.5    4.47    3.22     58.5     1.8    33.3    17.2    4.59    2.04     2.7    1.8    3.5    0.88    0.60
 1997 232    56    55    55.7     0.3    53.8    4.43    3.21     62.4     2.0    35.3    18.5    4.59    2.04     2.7    1.8    3.9    0.94    0.64
 1997 233    57    56    59.4     0.4    57.2    4.50    3.18     66.7     2.1    37.3    19.8    4.58    2.02     2.7    1.8    3.9    1.00    0.68
 1997 234    58    57    62.7     0.5    60.0    4.54    3.17     70.1     2.2    39.1    21.0    4.57    2.02     2.7    1.8    3.4    1.07    0.72
 1997 235    59    58    64.0     0.7    60.8    4.54    3.14     71.2     2.5    39.5    21.3    4.55    2.00     2.6    1.8    1.1    1.14    0.76
 1997 236    60    59    67.4     1.0    63.7    4.51    3.13     74.8     2.7    41.2    22.4    4.54    1.99     2.6    1.8    3.6    1.21    0.81
 1997 237    61    60    71.5     1.2    67.1    4.52    3.12     78.9     3.0    43.3    23.8    4.54    1.99     2.6    1.8    4.1    1.29    0.85
 1997 238    62    61    74.9     1.5    69.7    4.51    3.10     82.4     3.1    44.8    24.9    4.53    1.98     2.6    1.8    3.5    1.37    0.90
 1997 239    63    62    78.5     1.9    72.6    4.52    3.08     86.0     3.4    46.5    26.1    4.52    1.97     2.6    1.8    3.6    1.46    0.95
 1997 240    64    63    80.5     2.3    73.7    4.50    3.06     87.9     3.6    47.1    26.6    4.49    1.95     2.6    1.8    1.9    1.54    1.00
 1997 241    65    64    84.6     2.7    77.0    4.49    3.04     92.1     4.0    49.0    28.0    4.48    1.95     2.6    1.8    4.1    1.63    1.05
 1997 242    66    65    88.6     3.2    80.0    4.48    3.02     96.2     4.1    50.7    29.3    4.47    1.94     2.6    1.8    4.1    1.73    1.10
 1997 243    67    66    92.6     3.8    83.0    4.48    3.00    100.3     4.3    52.3    30.6    4.46    1.93     2.5    1.8    4.2    1.83    1.15
 1997 244    68    67    96.3     4.4    85.5    4.49    2.98    104.2     4.4    53.8    31.7    4.44    1.92     2.5    1.8    3.8    1.94    1.21
 1997 245    69    68    99.8     5.2    87.9    4.49    2.96    107.6     4.8    55.1    32.8    4.42    1.90     2.5    1.8    3.4    2.05    1.26
 1997 246    70    69   101.9     5.9    88.5    4.47    2.93    109.7     4.9    55.4    33.2    4.39    1.88     2.5    1.7    2.1    2.16    1.32
 1997 247    71    70   103.9     6.8    89.2    4.47    2.90    111.6     5.2    55.7    33.5    4.36    1.86     2.5    1.7    1.9    2.26    1.38
 1997 248    72    71   107.6     7.7    91.4    4.47    2.88    115.1     5.6    56.9    34.5    4.34    1.85     2.5    1.7    3.5    2.37    1.43
 1997 249    73    72   110.2     8.7    92.5    4.47    2.85    117.7     5.8    57.4    35.1    4.31    1.83     2.5    1.7    2.6    2.48    1.49
 1997 250    74    73   113.4     9.7    94.1    4.46    2.82    120.8     6.1    58.2    35.9    4.29    1.82     2.4    1.7    3.1    2.60    1.55
 1997 251    75    74   117.3    10.9    96.2    4.47    2.80    124.7     6.3    59.3    36.9    4.27    1.80     2.4    1.7    3.9    2.72    1.60
 1997 252    76    75   119.2    12.2    96.3    4.47    2.77    126.6     6.5    59.2    37.0    4.23    1.78     2.4    1.6    1.9    2.84    1.66
 1997 253    77    76   122.0    13.6    97.2    4.47    2.74    129.6     6.5    59.7    37.5    4.20    1.77     2.4    1.6    3.0    2.95    1.72
 1997 254    78    77   124.8    15.0    97.9    4.45    2.71    132.4     6.6    59.9    38.0    4.17    1.75     2.4    1.6    2.8    3.07    1.78
 1997 255    79    78   128.4    16.6    99.4    4.45    2.69    136.1     6.7    60.6    38.7    4.15    1.74     2.4    1.6    3.8    3.18    1.84
 1997 256    80    79   131.9    18.2   100.8    4.47    2.67    139.7     6.8    61.3    39.5    4.13    1.73     2.3    1.6    3.6    3.30    1.90
 1997 257    81    80   134.8    19.8   101.5    4.46    2.65    142.8     6.8    61.6    40.0    4.11    1.71     2.3    1.6    3.0    3.43    1.95
 1997 258    82    81   138.2    21.6   102.7    4.46    2.63    146.3     6.9    62.1    40.7    4.08    1.70     2.3    1.6    3.5    3.55    2.01
 1997 259    83    82   141.6    23.4   103.8    4.46    2.61    149.8     7.0    62.5    41.3    4.06    1.69     2.3    1.6    3.5    3.67    2.06
 1997 260    84    83   145.0    25.3   104.7    4.45    2.58    153.2     7.2    62.9    41.9    4.04    1.68     2.3    1.6    3.3    3.80    2.12
 1997 261    85    84   145.8    27.3   103.3    4.43    2.55    153.9     7.3    62.0    41.3    3.99    1.65     2.2    1.5    0.7    3.93    2.18
 1997 262    86    85   148.5    29.4   103.5    4.43    2.53    156.8     7.3    62.0    41.5    3.97    1.64     2.2    1.5    2.9    4.06    2.23
 1997 263    87    86   150.8    31.6   103.1    4.44    2.50    159.1     7.4    61.6    41.5    3.94    1.62     2.2    1.5    2.3    4.19    2.29
 1997 264    88    87   154.3    33.8   104.0    4.45    2.48    162.7     7.5    62.0    42.1    3.92    1.61     2.2    1.5    3.6    4.31    2.35
 1997 265    89    88   157.4    36.1   104.4    4.47    2.46    165.7     7.7    62.0    42.4    3.90    1.60     2.2    1.5    3.0    4.44    2.41
 1997 266    90    89   157.8    39.1   102.3    4.54    2.41    166.1     7.7    60.8    41.5    3.83    1.56     2.1    1.4    0.4    4.57    2.46
 1997 267    91    90   160.7    41.6   102.4    4.53    2.39    168.9     7.9    60.7    41.8    3.81    1.55     2.1    1.4    2.9    4.70    2.51
 1997 268    92    91   161.4    44.1   101.0    4.52    2.35    169.5     8.1    59.8    41.2    3.77    1.52     2.0    1.4    0.6    4.83    2.56
 1997 269    93    92   163.8    46.7   100.5    4.52    2.33    171.9     8.2    59.4    41.1    3.74    1.51     2.0    1.4    2.4    4.96    2.61
 1997 270    94    93   167.2    49.3   101.0    4.53    2.32    175.4     8.3    59.4    41.6    3.72    1.50     2.0    1.4    3.5    5.08    2.66
 1997 271    95    94   170.6    52.0   101.4    4.52    2.30    178.9     8.3    59.5    42.0    3.70    1.50     2.0    1.4    3.5    5.20    2.71
 1997 272    96    95   173.7    54.7   101.6    4.53    2.28    182.1     8.3    59.4    42.2    3.68    1.49     2.0    1.4    3.3    5.33    2.76
 1997 273    97    96   176.6    57.5   101.4    4.53    2.27    185.0     8.4    59.1    42.3    3.66    1.48     1.9    1.3    2.9    5.44    2.81
 1997 274    98    97   179.5    60.4   101.3    4.54    2.25    188.0     8.5    58.9    42.5    3.63    1.47     1.9    1.3    3.0    5.57    2.87
 1997 275    99    98   182.7    63.2   101.6    4.55    2.23    191.1     8.7    58.8    42.8    3.61    1.46     1.9    1.3    3.1    5.69    2.92
 1997 276   100    99   184.8    66.1   100.7    4.53    2.21    193.1     8.9    58.2    42.5    3.58    1.45     1.9    1.3    1.9    5.81    2.96
 1997 277   101   100   187.4    69.0   100.3    4.52    2.19    195.4     9.2    57.8    42.4    3.56    1.43     1.9    1.3    2.4    5.93    3.01
 1997 278   102   101   188.0    72.0    98.3    4.56    2.14    195.9     9.4    56.8    41.5    3.50    1.40     1.8    1.3    0.5    6.03    3.05
 1997 279   103   102   191.2    75.3    98.0    4.58    2.12    199.1     9.5    56.4    41.6    3.47    1.39     1.8    1.3    3.2    6.15    3.09
 1997 280   104   103   194.1    78.7    97.4    4.59    2.10    202.1     9.5    56.0    41.4    3.44    1.37     1.8    1.2    3.0    6.25    3.14
 1997 281   105   104   194.6    81.6    95.5    4.62    2.06    202.6     9.5    55.0    40.6    3.39    1.34     1.7    1.2    0.5    6.36    3.18
 1997 282   106   105   197.3    85.0    94.7    4.64    2.04    205.2     9.6    54.4    40.3    3.36    1.33     1.7    1.2    2.6    6.47    3.23
 1997 283   107   106   199.9    88.3    94.0    4.66    2.01    207.9     9.7    53.9    40.1    3.34    1.31     1.7    1.2    2.7    6.57    3.27
 1997 284   108   107   202.7    91.6    93.5    4.68    1.99    210.5     9.9    53.5    40.0    3.31    1.30     1.7    1.2    2.6    6.66    3.32
 1997 285   109   108   205.1    94.8    92.7    4.70    1.97    212.8    10.0    52.9    39.8    3.28    1.29     1.7    1.2    2.3    6.76    3.36
 1997 286   110   109   207.9    98.0    92.3    4.71    1.95    215.6    10.1    52.6    39.7    3.25    1.28     1.6    1.2    2.8    6.85    3.40
 1997 287   111   110   209.4   101.6    90.6    4.74    1.92    216.9    10.4    51.7    38.9    3.21    1.25     1.6    1.1    1.2    6.94    3.44
 1997 288   112   111   212.1   104.9    90.1    4.74    1.90    219.1    10.9    51.3    38.8    3.18    1.24     1.6    1.1    2.3    7.03    3.48
 1997 289   113   112   215.1   107.8    90.1    4.73    1.89    221.9    11.1    51.1    39.0    3.17    1.24     1.6    1.1    2.8    7.11    3.52
 1997 290   114   113   216.5   111.1    88.6    4.76    1.86    223.1    11.3    50.3    38.3    3.13    1.21     1.5    1.1    1.2    7.19    3.56
 1997 291   115   114   218.0   114.4    87.3    4.78    1.83    224.3    11.7    49.6    37.7    3.09    1.19     1.5    1.1    1.2    7.27    3.60
 1997 292   116   115   219.8   117.8    85.9    4.80    1.80    225.9    11.9    48.9    37.1    3.05    1.17     1.5    1.1    1.6    7.34    3.63
 1997 293   117   116   221.4   121.1    84.7    4.82    1.77    227.2    12.2    48.2    36.5    3.02    1.15     1.4    1.1    1.3    7.41    3.67
 1997 294   118   117   223.0   124.2    83.5    4.83    1.75    228.7    12.4    47.5    35.9    2.99    1.13     1.4    1.0    1.5    7.47    3.70
 1997 295   119   118   225.8   127.1    83.4    4.84    1.74    231.4    12.5    47.3    36.1    2.98    1.13     1.4    1.0    2.7    7.53    3.74
 1997 296   120   119   228.7   129.9    83.5    4.84    1.73    233.9    12.9    47.2    36.3    2.96    1.13     1.4    1.0    2.5    7.59    3.77
 1997 297   121   120   231.3   132.6    83.5    4.85    1.73    236.4    13.2    47.1    36.4    2.95    1.13     1.4    1.0    2.4    7.64    3.80
 1997 298   122   121   231.5   134.2    82.5    4.83    1.68    236.4    13.4    46.5    35.9    2.90    1.09     1.4    1.0    0.0    7.70    3.84

*DSSAT Cropping System Model Ver. 4.5.1.023 -Stub         OCT 13, 2014; 10:48:17
                                                                                
*RUN   5        : 97 DATE3 CHINESE          CRGRO045 GHNY9701    5              
 MODEL          : CRGRO045 - Peanut                                             
 EXPERIMENT     : GHNY9701 PN able [sltx] with oversized content [1 SALO], only 
 DATA PATH      :                                                               
 TREATMENT  5   : 97 DATE3 CHINESE          CRGRO045                            
  
@YEAR DOY   DAS   DAP    CNAD    GNAD    VNAD    GN%D    VN%D     NFXC    NUPC    LNAD    SNAD    LN%D    SN%D    SHND   RN%D   NFXD   SNN0C   SNN1C
 1997 205     1     0     0.0     0.0     0.0    0.00    0.00      0.0     0.0     0.0     0.0    0.00    0.00     0.0    0.0    0.0    0.00    0.00
 1997 206     2     1     0.0     0.0     0.0    0.00    0.00      0.0     0.0     0.0     0.0    0.00    0.00     0.0    0.0    0.0    0.00    0.00
 1997 207     3     2     0.0     0.0     0.0    0.00    0.00      0.0     0.0     0.0     0.0    0.00    0.00     0.0    0.0    0.0    0.00    0.00
 1997 208     4     3     0.0     0.0     0.0    0.00    0.00      0.0     0.0     0.0     0.0    0.00    0.00     0.0    0.0    0.0    0.00    0.00
 1997 209     5     4     0.0     0.0     0.0    0.00    0.00      0.0     0.0     0.0     0.0    0.00    0.00     0.0    0.0    0.0    0.00    0.00
 1997 210     6     5     0.0     0.0     0.0    0.00    0.00      0.0     0.0     0.0     0.0    0.00    0.00     0.0    0.0    0.0    0.00    0.00
 1997 211     7     6     0.0     0.0     0.0    0.00    0.00      0.0     0.0     0.0     0.0    0.00    0.00     0.0    0.0    0.0    0.00    0.00
 1997 212     8     7     0.5     0.0     0.5    0.00    4.84      0.1     0.0     0.5     0.1    5.36    2.56     0.0    2.3    0.0    0.00    0.00
 1997 213     9     8     0.5     0.0     0.5    0.00    4.81      0.1     0.0     0.5     0.1    5.31    2.52     0.0    2.2    0.0    0.00    0.01
 1997 214    10     9     0.6     0.0     0.6    0.00    4.82      0.1     0.0     0.6     0.1    5.30    2.50     0.0    2.2    0.1    0.00    0.01
 1997 215    11    10     0.7     0.0     0.7    0.00    4.82      0.2     0.0     0.6     0.1    5.28    2.48     0.0    2.2    0.1    0.00    0.01
 1997 216    12    11     0.8     0.0     0.8    0.00    4.81      0.3     0.0     0.7     0.1    5.25    2.46     0.0    2.2    0.1    0.00    0.02
 1997 217    13    12     0.9     0.0     0.9    0.00    4.66      0.4     0.0     0.8     0.1    5.08    2.35     0.0    2.1    0.1    0.00    0.02
 1997 218    14    13     1.0     0.0     1.0    0.00    4.67      0.4     0.0     0.9     0.1    5.07    2.35     0.0    2.1    0.1    0.00    0.02
 1997 219    15    14     1.1     0.0     1.1    0.00    4.49      0.5     0.0     1.0     0.1    4.93    2.20     0.0    2.0    0.1    0.01    0.02
 1997 220    16    15     1.2     0.0     1.2    0.00    4.18      0.7     0.0     1.1     0.1    4.62    2.04     0.0    1.9    0.1    0.01    0.02
 1997 221    17    16     1.3     0.0     1.3    0.00    4.05      0.8     0.0     1.2     0.1    4.55    1.96     0.0    1.9    0.1    0.01    0.03
 1997 222    18    17     1.4     0.0     1.4    0.00    3.89      1.0     0.0     1.3     0.2    4.47    1.88     0.0    1.8    0.2    0.01    0.03
 1997 223    19    18     1.6     0.0     1.6    0.00    3.74      1.2     0.0     1.3     0.2    4.41    1.90     0.0    1.8    0.2    0.01    0.03
 1997 224    20    19     1.8     0.0     1.8    0.00    3.69      1.5     0.0     1.5     0.3    4.38    1.92     0.0    1.8    0.2    0.01    0.04
 1997 225    21    20     2.0     0.0     2.0    0.00    3.66      1.8     0.0     1.7     0.3    4.38    1.95     0.0    1.8    0.3    0.02    0.04
 1997 226    22    21     2.3     0.0     2.3    0.00    3.66      2.2     0.0     1.9     0.4    4.41    2.00     0.0    1.8    0.3    0.02    0.05
 1997 227    23    22     2.5     0.0     2.5    0.00    3.69      2.5     0.0     2.1     0.5    4.46    2.05     0.0    1.8    0.3    0.02    0.05
 1997 228    24    23     2.9     0.0     2.9    0.00    3.61      2.9     0.0     2.3     0.5    4.41    2.03     0.0    1.7    0.4    0.03    0.06
 1997 229    25    24     3.3     0.0     3.3    0.00    3.64      3.4     0.0     2.6     0.7    4.47    2.08     0.0    1.8    0.4    0.03    0.06
 1997 230    26    25     3.7     0.0     3.7    0.00    3.56      3.9     0.0     2.9     0.8    4.42    2.06     0.0    1.7    0.5    0.03    0.07
 1997 231    27    26     4.2     0.0     4.2    0.00    3.52      4.6     0.0     3.2     0.9    4.41    2.06     0.0    1.7    0.5    0.04    0.07
 1997 232    28    27     4.8     0.0     4.8    0.00    3.52      5.3     0.0     3.7     1.1    4.44    2.08     0.0    1.7    0.6    0.04    0.08
 1997 233    29    28     5.3     0.0     5.3    0.00    3.52      6.2     0.0     4.1     1.3    4.46    2.09     0.0    1.8    0.7    0.05    0.09
 1997 234    30    29     6.1     0.0     6.1    0.00    3.55      7.0     0.0     4.6     1.5    4.53    2.13     0.0    1.8    0.8    0.05    0.09
 1997 235    31    30     6.6     0.0     6.6    0.00    3.56      7.5     0.0     4.9     1.6    4.55    2.15     0.0    1.8    0.5    0.06    0.10
 1997 236    32    31     7.4     0.0     7.4    0.00    3.54      8.5     0.0     5.5     1.9    4.57    2.15     0.0    1.8    0.9    0.07    0.11
 1997 237    33    32     8.2     0.0     8.2    0.00    3.51      9.7     0.0     6.1     2.1    4.56    2.13     0.0    1.8    1.0    0.07    0.12
 1997 238    34    33     9.3     0.0     9.3    0.00    3.53     10.8     0.0     6.8     2.5    4.60    2.16     0.0    1.8    1.2    0.08    0.13
 1997 239    35    34    10.3     0.0    10.3    0.00    3.50     12.2     0.0     7.5     2.8    4.59    2.14     2.8    1.8    1.2    0.09    0.14
 1997 240    36    35    11.3     0.0    11.3    0.00    3.51     13.2     0.0     8.2     3.1    4.62    2.15     2.8    1.8    1.1    0.10    0.15
 1997 241    37    36    12.4     0.0    12.4    0.00    3.45     14.8     0.0     8.9     3.5    4.57    2.12     2.8    1.8    1.3    0.12    0.17
 1997 242    38    37    13.8     0.0    13.8    0.00    3.44     16.5     0.0     9.9     3.9    4.58    2.12     2.8    1.8    1.6    0.13    0.18
 1997 243    39    38    15.4     0.0    15.3    0.00    3.44     18.3     0.1    10.9     4.4    4.60    2.12     2.8    1.8    1.7    0.14    0.20
 1997 244    40    39    17.1     0.0    17.1    0.00    3.44     20.1     0.2    12.0     5.0    4.63    2.13     2.8    1.8    1.8    0.16    0.22
 1997 245    41    40    18.9     0.0    18.8    0.00    3.43     22.0     0.4    13.2     5.6    4.64    2.13     2.8    1.9    1.8    0.18    0.23
 1997 246    42    41    20.5     0.0    20.2    0.00    3.42     23.5     0.5    14.1     6.1    4.65    2.13     2.8    1.9    1.5    0.20    0.25
 1997 247    43    42    22.1     0.0    21.7    0.00    3.41     25.1     0.7    15.1     6.6    4.65    2.12     2.8    1.9    1.6    0.22    0.28
 1997 248    44    43    23.9     0.0    23.5    0.00    3.36     27.4     0.8    16.2     7.2    4.61    2.09     2.8    1.8    1.9    0.26    0.30
 1997 249    45    44    25.9     0.0    25.3    0.00    3.35     29.5     1.0    17.4     7.9    4.62    2.09     2.8    1.8    2.1    0.31    0.32
 1997 250    46    45    28.1     0.0    27.3    0.00    3.33     31.9     1.1    18.6     8.6    4.61    2.08     2.7    1.8    2.2    0.37    0.34
 1997 251    47    46    30.3     0.0    29.3    4.50    3.29     34.6     1.2    19.9     9.4    4.58    2.05     2.7    1.8    2.4    0.44    0.37
 1997 252    48    47    32.3     0.0    30.9    4.52    3.27     36.7     1.3    21.0    10.0    4.58    2.05     2.7    1.8    2.1    0.49    0.40
 1997 253    49    48    34.7     0.1    33.0    4.46    3.26     39.3     1.3    22.3    10.7    4.57    2.04     2.7    1.8    2.6    0.53    0.42
 1997 254    50    49    37.1     0.2    35.0    4.40    3.24     41.8     1.4    23.5    11.5    4.57    2.03     2.7    1.8    2.5    0.57    0.45
 1997 255    51    50    39.7     0.4    37.0    4.43    3.20     44.8     1.5    24.7    12.3    4.54    2.01     2.7    1.8    2.7    0.61    0.48
 1997 256    52    51    42.5     0.6    39.2    4.50    3.18     47.9     1.5    26.1    13.1    4.52    2.00     2.7    1.8    3.0    0.66    0.51
 1997 257    53    52    45.2     0.8    41.2    4.44    3.15     50.8     1.6    27.3    13.9    4.51    1.99     2.7    1.8    2.8    0.71    0.55
 1997 258    54    53    48.1     1.1    43.4    4.47    3.13     53.9     1.6    28.7    14.8    4.49    1.97     2.6    1.8    3.1    0.76    0.58
 1997 259    55    54    51.1     1.4    45.6    4.44    3.11     57.1     1.7    30.0    15.7    4.48    1.96     2.6    1.8    3.2    0.82    0.61
 1997 260    56    55    54.2     1.8    47.8    4.44    3.09     60.3     1.8    31.2    16.5    4.47    1.95     2.6    1.8    3.2    0.88    0.65
 1997 261    57    56    55.7     2.3    48.2    4.39    3.05     61.8     1.9    31.5    16.7    4.42    1.92     2.6    1.8    1.5    0.94    0.68
 1997 262    58    57    58.4     2.8    49.9    4.39    3.03     64.7     1.9    32.4    17.4    4.41    1.91     2.6    1.8    2.9    1.01    0.72
 1997 263    59    58    60.9     3.4    51.2    4.42    3.00     67.3     2.0    33.2    18.0    4.39    1.90     2.6    1.7    2.6    1.08    0.76
 1997 264    60    59    64.0     4.1    53.0    4.46    2.98     70.6     2.1    34.2    18.8    4.37    1.89     2.6    1.7    3.2    1.15    0.80
 1997 265    61    60    67.1     4.9    54.7    4.49    2.96     73.7     2.2    35.2    19.5    4.35    1.88     2.5    1.7    3.1    1.22    0.84
 1997 266    62    61    68.1     5.7    54.2    4.44    2.92     74.7     2.3    34.9    19.4    4.31    1.85     2.5    1.7    1.0    1.30    0.88
 1997 267    63    62    71.2     6.7    55.7    4.45    2.90     77.9     2.4    35.7    20.0    4.30    1.84     2.5    1.7    3.1    1.38    0.92
 1997 268    64    63    72.5     7.8    55.3    4.42    2.87     79.1     2.6    35.4    19.9    4.25    1.81     2.5    1.7    1.2    1.46    0.96
 1997 269    65    64    75.2     8.9    56.2    4.44    2.85     81.8     2.6    35.8    20.3    4.24    1.80     2.5    1.7    2.7    1.54    1.00
 1997 270    66    65    78.4    10.2    57.5    4.47    2.83     85.2     2.7    36.5    21.0    4.22    1.80     2.5    1.6    3.3    1.63    1.04
 1997 271    67    66    81.5    11.5    58.7    4.46    2.81     88.5     2.7    37.1    21.5    4.21    1.79     2.4    1.6    3.3    1.72    1.07
[...]
 1997 297    93    92   140.1    82.2    47.2    5.00    1.86    144.3     6.9    29.0    18.2    3.09    1.14     1.5    1.1    2.2    3.94    1.96
 1997 298    94    93   142.5    85.3    46.6    5.02    1.83    146.5     7.1    28.6    18.0    3.05    1.12     1.5    1.1    2.3    4.00    1.99
 1997 299    95    94   145.0    88.1    46.5    5.03    1.81    148.9     7.3    28.4    18.0    3.03    1.11     1.5    1.1    2.4    4.04    2.01
 1997 300    96    95   147.4    90.8    46.2    5.03    1.80    151.1     7.6    28.2    18.0    3.01    1.10     1.5    1.1    2.1    4.09    2.03
 1997 301    97    96   149.8    93.4    46.1    5.03    1.79    153.4     7.7    28.1    18.1    2.99    1.10     1.4    1.1    2.4    4.14    2.06
 1997 302    98    97   152.2    95.8    46.2    5.03    1.78    155.6     7.9    28.0    18.2    2.97    1.10     1.4    1.1    2.2    4.18    2.08
 1997 303    99    98   154.5    97.8    46.6    5.02    1.78    157.8     8.0    28.0    18.6    2.97    1.11     1.4    1.1    2.2    4.22    2.11
 1997 304   100    99   156.5    99.7    46.8    5.01    1.78    159.7     8.2    28.0    18.8    2.96    1.11     1.4    1.0    1.8    4.26    2.13
 1997 305   101   100   156.6   100.7    46.1    4.98    1.70    159.7     8.3    27.6    18.5    2.89    1.06     1.4    1.0    0.0    4.29    2.15

*DSSAT Cropping System Model Ver. 4.5.1.023 -Stub         OCT 13, 2014; 10:48:17
                                                                                
*RUN   6        : 97 DATE3 F-MIX            CRGRO045 GHNY9701    6              
 MODEL          : CRGRO045 - Peanut                                             
 EXPERIMENT     : GHNY9701 PN able [sltx] with oversized content [1 SALO], only 
 DATA PATH      :                                                               
 TREATMENT  6   : 97 DATE3 F-MIX            CRGRO045                            
  
@YEAR DOY   DAS   DAP    CNAD    GNAD    VNAD    GN%D    VN%D     NFXC    NUPC    LNAD    SNAD    LN%D    SN%D    SHND   RN%D   NFXD   SNN0C   SNN1C
 1997 205     1     0     0.0     0.0     0.0    0.00    0.00      0.0     0.0     0.0     0.0    0.00    0.00     0.0    0.0    0.0    0.00    0.00
 1997 206     2     1     0.0     0.0     0.0    0.00    0.00      0.0     0.0     0.0     0.0    0.00    0.00     0.0    0.0    0.0    0.00    0.00
 1997 207     3     2     0.0     0.0     0.0    0.00    0.00      0.0     0.0     0.0     0.0    0.00    0.00     0.0    0.0    0.0    0.00    0.00
 1997 208     4     3     0.0     0.0     0.0    0.00    0.00      0.0     0.0     0.0     0.0    0.00    0.00     0.0    0.0    0.0    0.00    0.00
 1997 209     5     4     0.0     0.0     0.0    0.00    0.00      0.0     0.0     0.0     0.0    0.00    0.00     0.0    0.0    0.0    0.00    0.00
 1997 210     6     5     0.0     0.0     0.0    0.00    0.00      0.0     0.0     0.0     0.0    0.00    0.00     0.0    0.0    0.0    0.00    0.00
 1997 211     7     6     0.0     0.0     0.0    0.00    0.00      0.0     0.0     0.0     0.0    0.00    0.00     0.0    0.0    0.0    0.00    0.00
 1997 212     8     7     0.0     0.0     0.0    0.00    0.00      0.0     0.0     0.0     0.0    0.00    0.00     0.0    0.0    0.0    0.00    0.00
 1997 213     9     8     0.6     0.0     0.6    0.00    4.84      0.1     0.0     0.6     0.1    5.36    2.56     0.0    2.3    0.0    0.00    0.01
 1997 214    10     9     0.7     0.0     0.7    0.00    4.80      0.1     0.0     0.6     0.1    5.31    2.53     0.0    2.2    0.0    0.00    0.01
 1997 215    11    10     0.8     0.0     0.8    0.00    4.77      0.2     0.0     0.7     0.1    5.29    2.51     0.0    2.2    0.0    0.00    0.01
 1997 216    12    11     0.9     0.0     0.9    0.00    4.77      0.2     0.0     0.8     0.1    5.26    2.48     0.0    2.2    0.1    0.00    0.01
 1997 217    13    12     1.0     0.0     1.0    0.00    4.71      0.3     0.0     0.9     0.1    5.17    2.44     0.0    2.1    0.1    0.00    0.02
 1997 218    14    13     1.1     0.0     1.1    0.00    4.71      0.4     0.0     1.0     0.1    5.16    2.42     0.0    2.1    0.1    0.00    0.02
 1997 219    15    14     1.2     0.0     1.2    0.00    4.55      0.5     0.0     1.1     0.1    5.03    2.33     0.0    2.1    0.1    0.01    0.02
 1997 220    16    15     1.3     0.0     1.3    0.00    4.34      0.6     0.0     1.2     0.1    4.88    2.17     0.0    2.0    0.1    0.01    0.02
 1997 221    17    16     1.4     0.0     1.4    0.00    4.20      0.8     0.0     1.2     0.2    4.79    2.13     0.0    1.9    0.1    0.01    0.03
 1997 222    18    17     1.5     0.0     1.5    0.00    4.03      1.0     0.0     1.3     0.2    4.70    2.02     0.0    1.9    0.2    0.01    0.03
 1997 223    19    18     1.7     0.0     1.7    0.00    3.90      1.2     0.0     1.4     0.3    4.65    2.03     0.0    1.8    0.2    0.01    0.04
 1997 224    20    19     1.9     0.0     1.9    0.00    3.85      1.5     0.0     1.5     0.3    4.67    2.13     0.0    1.9    0.2    0.02    0.04
 1997 225    21    20     2.1     0.0     2.1    0.00    3.78      1.7     0.0     1.7     0.4    4.60    2.10     0.0    1.8    0.2    0.02    0.05
 1997 226    22    21     2.3     0.0     2.3    0.00    3.74      2.1     0.0     1.9     0.4    4.58    2.10     0.0    1.8    0.3    0.02    0.05
 1997 227    23    22     2.6     0.0     2.6    0.00    3.76      2.4     0.0     2.1     0.5    4.62    2.13     0.0    1.8    0.3    0.02    0.06
 1997 228    24    23     2.9     0.0     2.9    0.00    3.67      2.8     0.0     2.3     0.6    4.54    2.09     0.0    1.8    0.3    0.03    0.06
 1997 229    25    24     3.3     0.0     3.3    0.00    3.69      3.2     0.0     2.6     0.7    4.58    2.12     0.0    1.8    0.4    0.03    0.07
 1997 230    26    25     3.7     0.0     3.7    0.00    3.61      3.8     0.0     2.9     0.8    4.51    2.09     0.0    1.8    0.4    0.03    0.08
 1997 231    27    26     4.2     0.0     4.2    0.00    3.55      4.4     0.0     3.2     0.9    4.47    2.07     0.0    1.8    0.5    0.04    0.08
 1997 232    28    27     4.7     0.0     4.7    0.00    3.54      5.1     0.0     3.6     1.1    4.49    2.09     0.0    1.8    0.6    0.04    0.09
 1997 233    29    28     5.4     0.0     5.4    0.00    3.51      6.0     0.0     4.1     1.3    4.48    2.09     0.0    1.8    0.7    0.05    0.10
 1997 234    30    29     6.1     0.0     6.1    0.00    3.54      6.8     0.0     4.6     1.5    4.54    2.13     0.0    1.8    0.8    0.05    0.11
 1997 235    31    30     6.6     0.0     6.6    0.00    3.55      7.4     0.0     4.9     1.7    4.57    2.14     0.0    1.8    0.5    0.06    0.11
 1997 236    32    31     7.4     0.0     7.4    0.00    3.53      8.3     0.0     5.5     1.9    4.56    2.14     0.0    1.8    0.9    0.07    0.12
 1997 237    33    32     8.3     0.0     8.3    0.00    3.48      9.5     0.0     6.1     2.2    4.54    2.12     0.0    1.8    1.0    0.07    0.13
 1997 238    34    33     9.4     0.0     9.4    0.00    3.51     10.8     0.0     6.8     2.5    4.59    2.15     0.0    1.8    1.2    0.08    0.14
 1997 239    35    34    10.5     0.0    10.5    0.00    3.49     12.1     0.0     7.6     2.9    4.58    2.14     0.0    1.8    1.2    0.09    0.16
 1997 240    36    35    11.5     0.0    11.5    0.00    3.50     13.2     0.0     8.3     3.2    4.62    2.16     0.0    1.8    1.1    0.10    0.17
 1997 241    37    36    12.7     0.0    12.7    0.00    3.46     14.9     0.0     9.1     3.6    4.59    2.13     0.0    1.8    1.4    0.12    0.18
 1997 242    38    37    14.2     0.0    14.2    0.00    3.46     16.7     0.0    10.1     4.1    4.61    2.14     0.0    1.8    1.7    0.13    0.19
 1997 243    39    38    15.9     0.0    15.9    0.00    3.46     18.6     0.1    11.2     4.6    4.64    2.15     0.0    1.8    1.8    0.14    0.21
 1997 244    40    39    17.7     0.0    17.7    0.00    3.47     20.6     0.2    12.5     5.3    4.67    2.16     2.8    1.8    1.9    0.16    0.23
 1997 245    41    40    19.6     0.0    19.6    0.00    3.46     22.6     0.4    13.7     5.9    4.68    2.16     2.8    1.8    1.9    0.18    0.25
 1997 246    42    41    21.3     0.0    21.3    0.00    3.46     24.3     0.5    14.8     6.5    4.69    2.16     2.8    1.8    1.7    0.20    0.27
 1997 247    43    42    23.1     0.0    23.1    0.00    3.46     26.1     0.7    16.0     7.1    4.70    2.16     2.8    1.8    1.8    0.22    0.29
 1997 248    44    43    25.1     0.0    25.1    0.00    3.40     28.5     0.8    17.3     7.8    4.64    2.12     2.8    1.8    2.0    0.25    0.31
 1997 249    45    44    27.4     0.0    27.3    0.00    3.40     30.9     1.0    18.8     8.6    4.66    2.13     2.8    1.8    2.4    0.28    0.33
 1997 250    46    45    29.7     0.0    29.6    0.00    3.37     33.6     1.1    20.3     9.4    4.65    2.12     2.8    1.8    2.4    0.35    0.36
 1997 251    47    46    32.3     0.0    32.1    0.00    3.34     36.8     1.2    21.9    10.3    4.63    2.09     2.8    1.8    2.7    0.41    0.38
 1997 252    48    47    34.6     0.0    34.4    0.00    3.33     39.3     1.3    23.3    11.1    4.64    2.09     2.8    1.8    2.5    0.49    0.41
 1997 253    49    48    37.5     0.0    37.1    0.00    3.33     42.4     1.3    25.0    12.1    4.66    2.10     2.8    1.8    3.1    0.57    0.44
 1997 254    50    49    40.4     0.0    39.9    0.00    3.33     45.5     1.4    26.8    13.1    4.67    2.10     2.8    1.8    3.1    0.64    0.47
 1997 255    51    50    43.3     0.0    42.7    4.47    3.29     49.1     1.5    28.5    14.2    4.64    2.08     2.7    1.8    3.1    0.70    0.50
 1997 256    52    51    46.7     0.0    45.9    4.57    3.27     53.0     1.5    30.5    15.4    4.63    2.07     2.7    1.8    3.6    0.75    0.54
 1997 257    53    52    50.0     0.1    49.0    4.41    3.27     56.5     1.6    32.4    16.6    4.64    2.07     2.7    1.8    3.6    0.80    0.57
 1997 258    54    53    53.6     0.1    52.3    4.48    3.25     60.5     1.6    34.5    17.8    4.63    2.06     2.7    1.8    3.8    0.85    0.61
 1997 259    55    54    57.3     0.2    55.7    4.43    3.24     64.5     1.7    36.6    19.1    4.63    2.06     2.7    1.8    4.0    0.91    0.65
 1997 260    56    55    61.1     0.3    59.1    4.43    3.23     68.6     1.8    38.6    20.5    4.63    2.05     2.7    1.8    4.0    0.98    0.69
 1997 261    57    56    63.1     0.4    60.7    4.34    3.20     70.7     1.9    39.6    21.1    4.61    2.03     2.7    1.8    2.1    1.05    0.73
 1997 262    58    57    66.6     0.6    63.6    4.36    3.18     74.4     2.0    41.4    22.3    4.60    2.03     2.7    1.8    3.7    1.12    0.77
 1997 263    59    58    69.8     0.8    66.2    4.41    3.17     77.8     2.0    42.9    23.3    4.59    2.02     2.7    1.8    3.4    1.19    0.82
 1997 264    60    59    73.7     1.0    69.5    4.46    3.15     82.0     2.1    44.8    24.6    4.57    2.01     2.6    1.8    4.1    1.27    0.87
 1997 265    61    60    77.5     1.3    72.6    4.51    3.13     86.0     2.3    46.7    25.9    4.57    2.00     2.6    1.8    4.0    1.35    0.92
 1997 266    62    61    78.9     1.7    73.2    4.44    3.10     87.4     2.4    47.0    26.2    4.53    1.97     2.6    1.8    1.4    1.44    0.96
 1997 267    63    62    82.7     2.1    76.2    4.45    3.08     91.4     2.5    48.7    27.5    4.52    1.97     2.6    1.8    4.0    1.53    1.01
 1997 268    64    63    84.5     2.5    77.0    4.41    3.05     93.3     2.6    49.2    27.8    4.49    1.94     2.6    1.8    1.8    1.62    1.06
 1997 269    65    64    87.8     3.0    79.3    4.43    3.03     96.7     2.8    50.5    28.8    4.47    1.93     2.6    1.8    3.4    1.71    1.11
 1997 270    66    65    91.8     3.6    82.3    4.48    3.01    100.9     2.8    52.2    30.1    4.46    1.93     2.6    1.8    4.2    1.81    1.16
 1997 271    67    66    95.7     4.2    85.2    4.46    2.99    105.2     2.8    53.8    31.4    4.45    1.92     2.5    1.8    4.3    1.91    1.21
 1997 272    68    67    99.5     4.9    87.8    4.49    2.97    109.3     2.9    55.2    32.6    4.43    1.91     2.5    1.8    4.1    2.02    1.27
 1997 273    69    68   103.1     5.7    90.0    4.50    2.95    113.0     3.0    56.5    33.6    4.41    1.89     2.5    1.7    3.7    2.13    1.33
 1997 274    70    69   106.7     6.5    92.4    4.53    2.93    116.8     3.0    57.7    34.7    4.40    1.88     2.5    1.7    3.9    2.24    1.39
 1997 275    71    70   110.6     7.4    94.9    4.56    2.91    120.8     3.2    59.0    35.8    4.38    1.87     2.5    1.7    3.9    2.36    1.45
 1997 276    72    71   113.5     8.4    96.2    4.50    2.88    123.7     3.4    59.7    36.5    4.35    1.85     2.5    1.7    2.9    2.49    1.50
 1997 277    73    72   116.8     9.4    97.9    4.49    2.86    126.9     3.8    60.6    37.3    4.33    1.84     2.4    1.7    3.2    2.61    1.56
 1997 278    74    73   117.8    10.5    97.3    4.47    2.82    127.8     3.9    60.2    37.1    4.28    1.81     2.4    1.7    1.0    2.73    1.61
 1997 279    75    74   121.5    11.7    99.2    4.47    2.80    131.7     4.0    61.2    38.0    4.26    1.80     2.4    1.7    3.8    2.85    1.67
 1997 280    76    75   124.9    13.0   100.8    4.45    2.77    135.3     4.0    61.9    38.9    4.24    1.79     2.4    1.7    3.7    2.98    1.72
 1997 281    77    76   125.7    14.3    99.6    4.46    2.73    136.1     4.0    61.3    38.4    4.20    1.76     2.4    1.6    0.7    3.11    1.78
 1997 282    78    77   128.7    15.8   100.8    4.48    2.71    139.2     4.1    61.7    39.0    4.17    1.74     2.4    1.6    3.1    3.24    1.84
 1997 283    79    78   131.8    17.3   101.9    4.50    2.69    142.5     4.2    62.2    39.6    4.15    1.73     2.3    1.6    3.3    3.38    1.91
 1997 284    80    79   134.9    18.9   103.0    4.51    2.66    145.6     4.4    62.7    40.3    4.12    1.72     2.3    1.6    3.2    3.51    1.97
 1997 285    81    80   137.8    20.6   103.7    4.53    2.64    148.6     4.5    63.0    40.7    4.10    1.70     2.3    1.6    3.0    3.64    2.03
 1997 286    82    81   141.0    22.3   104.7    4.54    2.62    151.6     4.8    63.4    41.3    4.07    1.69     2.3    1.6    3.1    3.78    2.09
 1997 287    83    82   142.7    24.2   104.0    4.54    2.58    153.3     4.9    62.9    41.1    4.03    1.67     2.3    1.5    1.6    3.91    2.15
 1997 288    84    83   145.9    26.2   104.8    4.53    2.56    156.2     5.4    63.2    41.6    4.01    1.66     2.2    1.5    3.0    4.05    2.21
 1997 289    85    84   149.3    28.2   105.8    4.53    2.54    159.5     5.6    63.5    42.2    3.99    1.64     2.2    1.5    3.3    4.19    2.26
 1997 290    86    85   150.8    30.4   104.7    4.54    2.51    161.0     5.8    62.9    41.8    3.95    1.62     2.2    1.5    1.4    4.33    2.32
 1997 291    87    86   152.4    32.6   103.8    4.55    2.48    162.2     6.2    62.2    41.5    3.91    1.60     2.2    1.5    1.3    4.46    2.38
 1997 292    88    87   154.1    35.0   102.7    4.53    2.45    163.6     6.6    61.6    41.2    3.88    1.58     2.2    1.5    1.4    4.59    2.43
 1997 293    89    88   155.7    37.4   101.7    4.54    2.42    165.2     6.8    60.9    40.8    3.84    1.56     2.1    1.4    1.5    4.73    2.49
 1997 294    90    89   157.2    39.9   100.6    4.54    2.40    166.5     6.9    60.2    40.4    3.81    1.54     2.1    1.4    1.4    4.86    2.54
 1997 295    91    90   160.2    42.5   100.8    4.54    2.38    169.6     7.1    60.1    40.7    3.78    1.53     2.1    1.4    3.0    4.98    2.59
 1997 296    92    91   163.4    45.0   101.1    4.54    2.36    172.4     7.5    60.1    41.0    3.76    1.52     2.1    1.4    2.9    5.11    2.64
 1997 297    93    92   166.3    47.6   101.2    4.55    2.34    175.2     7.7    60.0    41.3    3.74    1.51     2.0    1.4    2.8    5.24    2.70
 1997 298    94    93   169.1    50.2   101.2    4.55    2.32    177.9     8.0    59.8    41.5    3.71    1.50     2.0    1.4    2.7    5.36    2.75
 1997 299    95    94   172.2    52.8   101.5    4.55    2.30    180.9     8.2    59.7    41.8    3.69    1.50     2.0    1.4    3.0    5.48    2.80
 1997 300    96    95   174.9    55.6   101.3    4.55    2.28    183.5     8.5    59.5    41.9    3.67    1.49     2.0    1.3    2.6    5.60    2.85
 1997 301    97    96   177.9    58.4   101.3    4.55    2.26    186.4     8.7    59.3    42.0    3.64    1.48     2.0    1.3    2.9    5.73    2.90
 1997 302    98    97   180.8    61.3   101.3    4.56    2.25    189.3     8.9    59.1    42.2    3.62    1.47     1.9    1.3    2.9    5.85    2.95
 1997 303    99    98   183.6    64.1   101.1    4.56    2.23    192.0     9.1    58.8    42.3    3.60    1.46     1.9    1.3    2.7    5.97    3.00
 1997 304   100    99   185.7    67.0   100.3    4.56    2.20    194.0     9.2    58.2    42.0    3.57    1.44     1.9    1.3    2.0    6.09    3.05
 1997 305   101   100   188.6    69.9   100.1    4.56    2.19    196.8     9.4    58.0    42.1    3.54    1.43     1.9    1.3    2.8    6.21    3.10
 1997 306   102   101   190.6    72.7    99.2    4.56    2.16    198.7     9.5    57.4    41.9    3.51    1.42     1.8    1.3    1.9    6.33    3.14
 1997 307   103   102   193.4    75.6    99.1    4.56    2.15    201.6     9.7    57.1    42.0    3.49    1.41     1.8    1.3    2.8    6.46    3.19
 1997 308   104   103   196.2    78.4    99.1    4.57    2.13    204.4     9.8    56.9    42.2    3.47    1.40     1.8    1.2    2.8    6.57    3.25
 1997 309   105   104   198.5    81.3    98.5    4.57    2.11    207.0     9.8    56.4    42.0    3.45    1.39     1.8    1.3    2.6    6.68    3.31
 1997 310   106   105   198.5    82.7    97.4    4.57    2.10    207.0     9.8    55.8    41.5    3.43    1.38     1.8    1.3    0.0    6.75    3.56
 1997 311   107   106   198.5    83.8    96.5    4.58    2.09    207.0     9.8    55.4    41.1    3.42    1.38     1.7    1.3    0.0    6.80    3.80
 1997 312   108   107   198.5    84.6    95.9    4.58    2.09    207.0     9.8    55.1    40.8    3.41    1.37     1.7    1.2    0.0    6.84    4.03
 1997 313   109   108   198.5    85.0    95.5    4.58    2.09    207.0     9.8    54.9    40.7    3.41    1.37     1.7    1.2    0.0    6.87    4.26
 1997 314   110   109   197.7    85.3    94.5    4.58    2.09    207.0     9.8    54.0    40.5    3.41    1.37     1.7    1.2    0.0    7.68    4.48
 1997 315   111   110   196.8    85.5    93.6    4.58    2.08    207.0     9.8    53.2    40.4    3.41    1.38     1.7    1.2    0.0    8.53    4.69
 1997 316   112   111   196.0    85.5    92.7    4.58    2.08    207.0     9.8    52.4    40.3    3.42    1.38     1.7    1.2    0.0    9.37    4.90
 1997 317   113   112   195.1    85.5    91.8    4.58    2.08    207.0     9.8    51.6    40.2    3.43    1.39     1.7    1.2    0.0   10.26    5.10
 1997 318   114   113   194.2    85.5    90.9    4.58    2.08    207.0     9.8    50.7    40.2    3.43    1.39     1.7    1.2    0.0   11.18    5.29
 1997 319   115   114   193.3    85.5    90.0    4.58    2.08    207.0     9.8    49.9    40.1    3.44    1.40     1.7    1.2    0.0   12.11    5.48
 1997 320   116   115   192.3    85.5    89.1    4.58    2.08    207.0     9.8    49.0    40.0    3.44    1.40     1.7    1.2    0.0   13.03    5.66
 1997 321   117   116   191.4    85.5    88.1    4.58    2.08    207.0     9.8    48.2    40.0    3.45    1.40     1.7    1.2    0.0   13.95    5.83
 1997 322   118   117   190.5    85.5    87.2    4.58    2.08    207.0     9.8    47.3    39.9    3.46    1.41     1.7    1.2    0.0   14.87    6.00
 1997 323   119   118   189.6    85.5    86.3    4.58    2.07    207.0     9.8    46.5    39.8    3.46    1.41     1.7    1.2    0.0   15.78    6.17
 1997 324   120   119   188.7    85.5    85.4    4.58    2.07    207.0     9.8    45.7    39.7    3.47    1.42     1.7    1.2    0.0   16.68    6.33
