*PLANT C OUTPUT FILE

*DSSAT Cropping System Model Ver. 4.5.1.023 -Stub         NOV 06, 2014; 23:59:41
                                                                                
*RUN   1        : 97 DATE1 CHINESE          CRGRO045 GHNY9701    1              
 MODEL          : CRGRO045 - Peanut                                             
 EXPERIMENT     : GHNY9701 PN 1997 VARIETY X PLANTING DATE EXPERIMENT           
 DATA PATH      :                                                               
 TREATMENT  1   : 97 DATE1 CHINESE          CRGRO045                            
  
@YEAR DOY   DAS   DAP   TWAD    PHAD    CMAD    CGRD    GRAD    MRAD    CHAD   CL%D   CS%D   TGNN   TGAV    GN%D    GL%D    GC%D
 1997 149     1     0      0  0.0000  0.0000  0.0000  0.0000  0.0000 0.00000  0.000  0.000 30.992 27.616  0.0000  0.0000  0.0000
 1997 150     2     1      0  0.0000  0.0000  0.0000  0.0000  0.0000 0.00000  0.000  0.000 32.445 28.962  0.0000  0.0000  0.0000
 1997 151     3     2      0  0.0000  0.0000  0.0000  0.0000  0.0000 0.00000  0.000  0.000 31.652 28.631  0.0000  0.0000  0.0000
 1997 152     4     3      0  0.0000  0.0000  0.0000  0.0000  0.0000 0.00000  0.000  0.000 31.415 27.860  0.0000  0.0000  0.0000
 1997 153     5     4      0  0.0000  0.0000  0.0000  0.0000  0.0000 0.00000  0.000  0.000 31.984 28.358  0.0000  0.0000  0.0000
 1997 154     6     5      0  0.0000  0.0000  0.0000  0.0000  0.0000 0.00000  0.000  0.000 31.726 27.745  0.0000  0.0000  0.0000
 1997 155     7     6      0  0.0000  0.0000  0.0000  0.0000  0.0000 0.00000  0.000  0.000 30.154 27.133  0.0000  0.0000  0.0000
 1997 156     8     7     20  0.0000  0.0010  0.0011  0.0001  0.0000 0.00000  2.958  5.913 26.130 24.174  0.0000  0.0000  0.0000
 1997 157     9     8     22  0.3678  0.0010  0.2669  0.0722  0.0312 0.00000  2.941  5.837 30.307 26.503  0.0000  0.0000  0.0000
 1997 158    10     9     24  0.3262  0.0011  0.2378  0.0626  0.0311 0.00000  2.920  5.762 29.703 26.788  0.0000  0.0000  0.0000
 1997 159    11    10     27  0.4243  0.0012  0.2932  0.0810  0.0425 0.00000  2.900  5.707 32.066 28.618  0.0000  0.0000  0.0000
 1997 160    12    11     31  0.5680  0.0013  0.4167  0.1066  0.0521 0.00000  2.896  5.646 32.261 28.350  0.0000  0.0000  0.0000
 1997 161    13    12     35  0.6026  0.0015  0.4301  0.1187  0.0547 0.00000  2.892  5.596 30.994 27.829  0.0000  0.0000  0.0000
 1997 162    14    13     38  0.5128  0.0017  0.3249  0.1143  0.0459 0.00000  2.881  5.544 26.821 25.967  0.0000  0.0000  0.0000
 1997 163    15    14     44  0.8732  0.0000  0.5865  0.1513  0.0642 0.01494  3.495  6.019 28.999 25.622  0.0000  0.0000  0.0000
 1997 164    16    15     48  0.7747  0.0023  0.5032  0.1587  0.0696 0.00000  3.423  5.936 29.816 27.149  0.0000  0.0000  0.0000
 1997 165    17    16     55  1.0480  0.0000  0.6884  0.1935  0.0818 0.01133  3.754  6.183 29.516 26.173  0.0000  0.0000  0.0000
 1997 166    18    17     62  1.1400  0.0030  0.7712  0.2263  0.0899 0.00000  3.655  6.067 28.816 26.149  0.0000  0.0000  0.0000
 1997 167    19    18     71  1.3507  0.0034  0.8925  0.2684  0.1084 0.00000  3.571  5.974 29.384 26.646  0.0000  0.0000  0.0000
 1997 168    20    19     80  1.5322  0.0035  0.9931  0.3103  0.1123 0.00000  3.501  5.913 28.685 25.271  0.0000  0.0000  0.0000
 1997 169    21    20     91  1.7326  0.0042  1.1649  0.3535  0.1419 0.00000  3.410  5.852 30.680 26.804  0.0000  0.0000  0.0000
 1997 170    22    21    102  1.8149  0.0046  1.1435  0.3914  0.1497 0.00000  3.336  5.800 30.622 26.390  0.0000  0.0000  0.0000
 1997 171    23    22    115  2.1878  0.0051  1.4396  0.4620  0.1650 0.00000  3.268  5.760 29.001 25.623  0.0000  0.0000  0.0000
 1997 172    24    23    131  2.5465  0.0062  1.6198  0.5402  0.2213 0.00000  3.207  5.722 31.080 27.879  0.0000  0.0000  0.0000
 1997 173    25    24    141  1.8869  0.0071  1.1041  0.4098  0.1985 0.00000  3.159  5.669 30.816 28.149  0.0000  0.0000  0.0000
 1997 174    26    25    153  2.2153  0.0061  1.3240  0.5077  0.1529 0.00101  3.128  5.661 24.679 22.830  0.0000  0.0000  0.0000
 1997 175    27    26    170  2.8004  0.0075  1.7228  0.6176  0.2129 0.00652  3.128  5.723 27.737 24.893  0.0000  0.0000  0.0000
 1997 176    28    27    191  3.4972  0.0093  2.2757  0.7214  0.2960 0.01530  3.165  5.862 29.816 27.149  0.0000  0.0000  0.0000
 1997 177    29    28    219  4.3386  0.0106  2.8336  0.8863  0.3550 0.02835  3.242  6.088 30.158 27.136  0.0000  0.0000  0.0000
 1997 178    30    29    247  4.7500  0.0125  2.9707  1.0043  0.4017 0.03960  3.335  6.336 30.579 27.379  0.0000  0.0000  0.0000
 1997 179    31    30    272  4.4266  0.0139  2.5464  0.9861  0.3816 0.04552  3.422  6.563 30.295 26.455  0.0000  0.0000  0.0000
 1997 180    32    31    308  5.8519  0.0167  3.7226  1.2057  0.4745 0.07250  3.559  6.892 29.484 26.746  0.0000  0.0000  0.0000
 1997 181    33    32    341  5.8346  0.0198  3.3535  1.2961  0.4828 0.08420  3.683  7.189 28.537 26.368  0.0000  0.0000  0.0000
 1997 182    34    33    382  6.8067  0.0238  4.1810  1.4229  0.5817 0.11406  3.836  7.534 28.789 27.189  0.0000  0.0000  0.0000
 1997 183    35    34    410  5.2027  0.0271  2.9720  1.1154  0.4992 0.09864  3.938  7.762 28.552 26.419  0.0000  0.0000  0.0000
 1997 184    36    35    442  5.7540  0.0263  3.3073  1.2632  0.4559 0.12056  4.058  8.031 26.394 23.905  0.0000  0.0000  0.0000
 1997 185    37    36    477  6.3138  0.0316  3.6056  1.3676  0.5439 0.14412  4.186  8.314 27.814 25.148  0.0000  0.0000  0.0000
 1997 186    38    37    533  8.8567  0.0382  5.7094  1.7392  0.7464 0.22491  4.376  8.725 28.720 26.515  0.0000  0.0000  0.0000
 1997 187    39    38    590  9.4278  0.0437  5.7351  1.9394  0.7921 0.25168  4.555  9.109 28.677 26.153  0.0000  0.0000  0.0000
 1997 188    40    39    650 10.2940  0.0499  6.0916  2.1632  0.8390 0.29393  4.736  9.494 27.972 25.661  0.0000  0.0000  0.0000
 1997 189    41    40    724 12.1034  0.0583  7.4633  2.4348  1.0137 0.36639  4.934  9.916 29.234 26.390  0.0000  0.0000  0.0000
 1997 190    42    41    796 12.7508  0.0681  7.2037  2.7081  1.1323 0.40749  5.115 10.304 30.075 26.876  0.0000  0.0000  0.0000
 1997 191    43    42    855 10.6499  0.0779  6.0293  2.2370  0.9537 0.35843  5.246 10.575 26.835 25.342  0.0000  0.0000  0.0000
 1997 192    44    43    918 11.4386  0.0856  6.4091  2.3744  1.1121 0.40043  5.381 10.854 29.574 26.375  0.0000  0.0000  0.0000
 1997 193    45    44   1007 14.9759  0.0950  8.8816  3.0632  1.2110 0.55822  5.574 11.241 26.787 25.187  0.0000  0.0000  0.0000
 1997 194    46    45   1104 16.6458  0.1152  9.8718  3.3026  1.5406 0.64526  5.775 11.629 29.811 27.145  0.0000  0.0000  0.0000
 1997 195    47    46   1195 16.8729  0.1360  9.3245  3.4483  1.7271 0.67475  5.950 11.969 30.810 28.144  4.6200 51.0000 11.6249
 1997 196    48    47   1263 12.8109  0.1450  7.2056  2.5551  1.3219 0.51279  6.069 12.165 28.310 25.644  4.3948 51.0000 13.0327
 1997 197    49    48   1318 10.2677  0.1424  5.9182  2.0116  1.0307 0.39828  6.139 12.282 24.785 23.186  4.1991 50.9759 14.2796
 1997 198    50    49   1412 17.2168  0.1736  9.4770  3.5562  1.6309 0.73164  6.280 12.571 28.388 25.900  4.2773 50.9871 13.7797
 1997 199    51    50   1512 18.1209  0.1895 10.1596  3.7216  1.6411 0.78912  6.425 12.859 27.467 25.157  4.2796 50.9924 13.7601
 1997 200    52    51   1621 19.5151  0.2157 11.0547  3.9289  1.8945 0.86905  6.570 13.146 29.012 26.133  4.3186 50.9950 13.5137
 1997 201    53    52   1707 16.2987  0.2240  9.0050  3.3482  1.5989 0.69714  6.666 13.323 27.243 24.436  4.2826 50.9965 13.7374
 1997 202    54    53   1764 11.5844  0.2457  6.4324  2.2729  1.4978 0.42095  6.694 13.343 28.083 24.920  4.2753 50.9975 13.7817
 1997 203    55    54   1890 22.4974  0.2715 12.6983  4.5629  2.1985 1.05740  6.850 13.654 29.146 26.126  4.3038 50.9981 13.6033
 1997 204    56    55   1999 21.1680  0.3065 11.1789  4.4073  2.3705 0.97287  6.967 13.880 30.485 27.110  4.3469 50.9985 13.3336
 1997 205    57    56   2106 21.0500  0.3323 11.0902  4.3906  2.3961 0.96257  7.071 14.074 30.200 26.861  4.3724 50.9988 13.1736
 1997 206    58    57   2230 23.7178  0.3493 12.5794  5.0364  2.3861 1.14354  7.200 14.324 28.643 25.624  4.3655 50.9990 13.2169
 1997 207    59    58   2354 24.4896  0.3981 12.7391  5.1473  2.8150 1.19855  7.319 14.551 30.562 27.365  4.3939 50.9992 13.0386
 1997 208    60    59   2474 24.1439  0.4360 12.4300  5.0706  2.9769 1.15937  7.419 14.733 31.061 27.865  4.4255 50.9993 12.8415
 1997 209    61    60   2602 25.6119  0.4648 13.2019  5.4225  3.0398 1.24961  7.524 14.925 30.560 27.364  4.4419 50.9994 12.7389
 1997 210    62    61   2694 19.9616  0.5040 10.2945  4.1955  2.7727 0.82428  7.556 14.949 29.800 27.136  4.4512 50.9995 12.6807
 1997 211    63    62   2768 16.8628  0.5067  8.6932  3.6514  2.4107 0.53106  7.544 14.876 28.299 25.635  4.4349 50.9996 12.7826
 1997 212    64    63   2825 14.3577  0.5008  7.2656  3.2591  2.0922 0.33934  7.507 14.745 26.118 24.165  4.3979 50.9996 13.0137
 1997 213    65    64   2902 18.1600  0.5295  9.0792  4.1640  2.4292 0.49273  7.491 14.661 26.798 25.023  4.3805 50.9997 13.1224
 1997 214    66    65   3023 26.3248  0.5540 12.7977  5.9651  3.2091 1.11080  7.561 14.788 29.651 26.669  4.3894 50.9997 13.0668
 1997 215    67    66   3137 25.5039  0.5831 12.2622  5.6946  3.4965 1.06868  7.620 14.887 31.617 27.676  4.4088 50.9998 12.9454
 1997 216    68    67   3214 19.6277  0.6291  9.3590  4.5757  3.0219 0.48625  7.586 14.766 28.648 26.766  4.4151 50.9998 12.9060
 1997 217    69    68   3301 21.5247  0.6223 10.1960  5.1065  3.0455 0.59182  7.569 14.690 28.793 26.131  4.4127 50.9998 12.9211
 1997 218    70    69   3349 14.1157  0.6047  6.5485  3.5214  2.4150 0.39399  7.531 14.560 26.873 24.388  4.3895 50.9998 13.0661
 1997 219    71    70   3427 20.4870  0.6417  9.3963  5.0238  3.0782 0.54261  7.507 14.468 28.791 26.129  4.3898 50.9999 13.0640
 1997 220    72    71   3540 26.7297  0.6340 12.4196  6.5180  3.3228 0.88830  7.540 14.508 28.900 25.599  4.3842 50.9999 13.0987
 1997 221    73    72   3622 22.0740  0.6861  9.9178  5.4431  3.4962 0.60371  7.521 14.428 30.044 27.063  4.3947 50.9999 13.0332
 1997 222    74    73   3728 26.6219  0.6953 12.0671  6.6428  3.6064 0.74091  7.521 14.396 28.869 26.385  4.3972 50.9999 13.0178
 1997 223    75    74   3834 26.7782  0.7089 12.1004  6.6918  3.7244 0.76279  7.525 14.372 29.458 26.513  4.4005 50.9999 12.9967
 1997 224    76    75   3925 24.2852  0.7233 10.6747  6.2331  3.5517 0.71057  7.519 14.326 28.770 26.073  4.3993 50.9999 13.0042
 1997 225    77    76   4017 24.8483  0.7538 10.8039  6.3514  3.8464 0.73449  7.512 14.279 29.382 26.934  4.4060 50.9999 12.9625
 1997 226    78    77   4103 24.3524  0.7680 10.3142  6.2826  3.9742 0.72501  7.500 14.225 30.203 27.365  4.4154 50.9999 12.9035
 1997 227    79    78   4157 15.5727  0.0000  4.7112  3.6200  3.0483 2.35333  8.094 15.485 26.751 25.332  4.4808 50.8520 12.6429
 1997 228    80    79   4247 24.8425  0.8233 10.6359  6.5436  4.0883 0.77643  8.080 15.415 31.921 27.381  4.5243 50.7800 12.4432
 1997 229    81    80   4316 20.5550  0.0000  6.3886  5.3774  3.6950 2.16863  8.623 16.544 29.362 26.879  4.5952 50.6420 12.1383
 1997 230    82    81   4397 23.8854  0.6925  9.5872  6.3771  4.2274 0.77174  8.645 16.535 32.128 28.050  4.6305 50.5935 11.9661
 1997 231    83    82   4486 25.0197  0.5779 10.2185  6.8712  3.6855 0.84050  8.705 16.604 29.034 25.843  4.6469 50.5499 11.9069
 1997 232    84    83   4574 24.3711  0.0000  7.6772  6.5969  3.6574 2.66823  9.340 17.933 28.359 25.877  4.7058 50.4202 11.6685
 1997 233    85    84   4663 25.8157  1.0642 10.5902  6.9250  4.4749 0.85865  9.281 17.768 31.917 28.478  4.7312 50.3932 11.5368
 1997 234    86    85   4731 21.4414  0.0000  6.9555  5.7328  4.2073 1.37887  9.614 18.413 31.866 28.321  4.7731 50.3269 11.3411
 1997 235    87    86   4762 11.7500  0.0000  3.4997  2.6469  3.4259 0.93086  9.865 18.877 30.865 27.320  4.7949 50.2864 11.2456
 1997 236    88    87   4833 21.1327  0.0000  6.4522  5.7493  3.7263 1.96999 10.330 19.818 29.945 26.578  4.8318 50.2097 11.0914
 1997 237    89    88   4910 23.5067  1.0126  9.2530  6.5094  4.1013 0.84028 10.280 19.666 30.860 27.529  4.8422 50.1977 11.0388
 1997 238    90    89   4978 20.3854  0.0000  6.2242  5.5774  3.7230 1.71347 10.681 20.465 29.975 26.679  4.8727 50.1349 10.9109
 1997 239    91    90   5049 21.2437  0.0000  6.8503  5.7207  4.0037 1.40785 11.007 21.092 30.940 27.574  4.8999 50.0867 10.7890
 1997 240    92    91   5090 14.4283  0.0000  4.3146  3.7630  3.3682 0.96085 11.249 21.542 30.528 26.277  4.9185 50.0457 10.7137
 1997 241    93    92   5165 21.9727  1.3830  9.0967  6.0731  3.8092 0.86986 11.105 21.213 29.769 26.687  4.9206 50.0414 10.7050
 1997 242    94    93   5236 21.3330  1.3986  8.7579  5.9414  3.7464 0.82055 10.950 20.872 28.913 26.575  4.9231 50.0353 10.6952
 1997 243    95    94   5308 21.3030  1.3852  8.6870  5.8749  3.8025 0.85133 10.802 20.549 29.632 26.692  4.9264 50.0285 10.6814
 1997 244    96    95   5375 20.2315  1.3914  8.1865  5.3682  4.0720 0.86827 10.654 20.234 31.350 27.809  4.9306 50.0268 10.6572
 1997 245    97    96   5440 19.7034  1.3959  8.0671  5.3138  3.7873 0.82953 10.502 19.912 29.344 26.865  4.9321 50.0245 10.6498
 1997 246    98    97   5487 14.8594  0.0000  4.3102  3.8635  3.2686 1.28834 10.792 20.491 27.674 25.691  4.9471 49.9883 10.5926
 1997 247    99    98   5531 14.9518  0.0000  4.3578  3.9555  3.4984 0.95843 11.014 20.921 28.924 26.623  4.9615 49.9582 10.5325
 1997 248   100    99   5623 19.0749  0.0000  3.5919  2.4569  3.9116 6.48205 12.285 23.642 30.843 27.303  4.9241 50.0379 10.6866

*DSSAT Cropping System Model Ver. 4.5.1.023 -Stub         NOV 06, 2014; 23:59:41
                                                                                
*RUN   2        : 97 DATE1 F-MIX            CRGRO045 GHNY9701    2              
 MODEL          : CRGRO045 - Peanut                                             
 EXPERIMENT     : GHNY9701 PN 1997 VARIETY X PLANTING DATE EXPERIMENT           
 DATA PATH      :                                                               
 TREATMENT  2   : 97 DATE1 F-MIX            CRGRO045                            
  
@YEAR DOY   DAS   DAP   TWAD    PHAD    CMAD    CGRD    GRAD    MRAD    CHAD   CL%D   CS%D   TGNN   TGAV    GN%D    GL%D    GC%D
 1997 149     1     0      0  0.0000  0.0000  0.0000  0.0000  0.0000 0.00000  0.000  0.000 30.992 27.616  0.0000  0.0000  0.0000
 1997 150     2     1      0  0.0000  0.0000  0.0000  0.0000  0.0000 0.00000  0.000  0.000 32.445 28.962  0.0000  0.0000  0.0000
 1997 151     3     2      0  0.0000  0.0000  0.0000  0.0000  0.0000 0.00000  0.000  0.000 31.652 28.631  0.0000  0.0000  0.0000
 1997 152     4     3      0  0.0000  0.0000  0.0000  0.0000  0.0000 0.00000  0.000  0.000 31.415 27.860  0.0000  0.0000  0.0000
 1997 153     5     4      0  0.0000  0.0000  0.0000  0.0000  0.0000 0.00000  0.000  0.000 31.984 28.358  0.0000  0.0000  0.0000
 1997 154     6     5      0  0.0000  0.0000  0.0000  0.0000  0.0000 0.00000  0.000  0.000 31.726 27.745  0.0000  0.0000  0.0000
 1997 155     7     6      0  0.0000  0.0000  0.0000  0.0000  0.0000 0.00000  0.000  0.000 30.154 27.133  0.0000  0.0000  0.0000
 1997 156     8     7      0  0.0000  0.0000  0.0000  0.0000  0.0000 0.00000  0.000  0.000 26.130 24.174  0.0000  0.0000  0.0000
 1997 157     9     8     25  0.0000  0.0012  0.0014  0.0002  0.0000 0.00000  2.956  5.908 30.307 26.503  0.0000  0.0000  0.0000
 1997 158    10     9     27  0.3144  0.0013  0.2778  0.0355  0.0321 0.00000  2.931  5.821 29.703 26.788  0.0000  0.0000  0.0000
 1997 159    11    10     30  0.3713  0.0014  0.2684  0.0611  0.0415 0.00000  2.895  5.744 32.066 28.618  0.0000  0.0000  0.0000
 1997 160    12    11     33  0.5268  0.0015  0.3824  0.0996  0.0516 0.00000  2.893  5.678 32.261 28.350  0.0000  0.0000  0.0000
 1997 161    13    12     37  0.5351  0.0016  0.3725  0.1082  0.0525 0.00000  2.890  5.621 30.994 27.829  0.0000  0.0000  0.0000
 1997 162    14    13     39  0.4523  0.0018  0.3036  0.0943  0.0439 0.00000  2.881  5.564 26.821 25.967  0.0000  0.0000  0.0000
 1997 163    15    14     45  0.8450  0.0000  0.5792  0.1469  0.0637 0.00906  3.282  5.896 28.999 25.622  0.0000  0.0000  0.0000
 1997 164    16    15     49  0.7214  0.0023  0.4634  0.1463  0.0675 0.00000  3.231  5.834 29.816 27.149  0.0000  0.0000  0.0000
 1997 165    17    16     55  0.9889  0.0000  0.6695  0.1778  0.0793 0.00042  3.242  5.877 29.516 26.173  0.0000  0.0000  0.0000
 1997 166    18    17     62  1.0692  0.0028  0.7358  0.2056  0.0866 0.00000  3.196  5.831 28.816 26.149  0.0000  0.0000  0.0000
 1997 167    19    18     70  1.2679  0.0032  0.8546  0.2441  0.1042 0.00000  3.155  5.798 29.384 26.646  0.0000  0.0000  0.0000
 1997 168    20    19     79  1.4447  0.0033  0.9561  0.2845  0.1081 0.00000  3.120  5.777 28.685 25.271  0.0000  0.0000  0.0000
 1997 169    21    20     90  1.6272  0.0039  1.1017  0.3278  0.1359 0.00000  3.081  5.739 30.680 26.804  0.0000  0.0000  0.0000
 1997 170    22    21    100  1.7005  0.0043  1.0802  0.3625  0.1430 0.00000  3.048  5.703 30.622 26.390  0.0000  0.0000  0.0000
 1997 171    23    22    113  2.0621  0.0048  1.3666  0.4309  0.1578 0.00000  3.019  5.678 29.001 25.623  0.0000  0.0000  0.0000
 1997 172    24    23    127  2.3990  0.0058  1.5377  0.5039  0.2112 0.00000  2.991  5.651 31.080 27.879  0.0000  0.0000  0.0000
 1997 173    25    24    137  1.7491  0.0067  1.0260  0.3767  0.1882 0.00000  2.964  5.606 30.816 28.149  0.0000  0.0000  0.0000
 1997 174    26    25    148  2.0750  0.0057  1.2426  0.4738  0.1454 0.00000  2.945  5.589 24.679 22.830  0.0000  0.0000  0.0000
 1997 175    27    26    164  2.6269  0.0071  1.6246  0.5785  0.2022 0.00000  2.928  5.574 27.737 24.893  0.0000  0.0000  0.0000
 1997 176    28    27    184  3.2927  0.0086  2.1658  0.6786  0.2812 0.00000  2.912  5.562 29.816 27.149  0.0000  0.0000  0.0000
 1997 177    29    28    210  4.1191  0.0096  2.7578  0.8406  0.3386 0.00088  2.904  5.571 30.158 27.136  0.0000  0.0000  0.0000
 1997 178    30    29    238  4.5625  0.0111  2.9284  0.9582  0.3860 0.00927  2.926  5.644 30.579 27.379  0.0000  0.0000  0.0000
 1997 179    31    30    262  4.2359  0.0121  2.4610  0.9497  0.3662 0.01600  2.961  5.740 30.295 26.455  0.0000  0.0000  0.0000
 1997 180    32    31    297  5.6532  0.0144  3.6613  1.1637  0.4578 0.03227  3.036  5.918 29.484 26.746  0.0000  0.0000  0.0000
 1997 181    33    32    329  5.6415  0.0168  3.3193  1.2516  0.4663 0.04237  3.116  6.104 28.537 26.368  0.0000  0.0000  0.0000
 1997 182    34    33    369  6.6189  0.0201  4.1390  1.3894  0.5640 0.06239  3.218  6.335 28.789 27.189  0.0000  0.0000  0.0000
 1997 183    35    34    396  5.0407  0.0227  2.9108  1.0917  0.4831 0.05732  3.289  6.492 28.552 26.419  0.0000  0.0000  0.0000
 1997 184    36    35    428  5.6009  0.0219  3.2557  1.2431  0.4423 0.07366  3.378  6.692 26.394 23.905  0.0000  0.0000  0.0000
 1997 185    37    36    462  6.1571  0.0263  3.5563  1.3495  0.5285 0.09172  3.475  6.908 27.814 25.148  0.0000  0.0000  0.0000
 1997 186    38    37    517  8.7016  0.0316  5.5989  1.7534  0.7290 0.14765  3.624  7.233 28.720 26.515  0.0000  0.0000  0.0000
 1997 187    39    38    571  9.2855  0.0361  5.6347  1.9552  0.7747 0.17422  3.771  7.552 28.677 26.153  0.0000  0.0000  0.0000
 1997 188    40    39    632 10.1934  0.0413  6.1391  2.1622  0.8234 0.21089  3.922  7.880 27.972 25.661  0.0000  0.0000  0.0000
 1997 189    41    40    705 12.0468  0.0484  7.4198  2.4636  0.9993 0.27059  4.102  8.272 29.234 26.390  0.0000  0.0000  0.0000
 1997 190    42    41    776 12.6211  0.0566  7.2767  2.7059  1.1129 0.30635  4.259  8.613 30.075 26.876  0.0000  0.0000  0.0000
 1997 191    43    42    835 10.5835  0.0650  6.0239  2.2729  0.9392 0.28061  4.375  8.860 26.835 25.342  0.0000  0.0000  0.0000
 1997 192    44    43    899 11.4434  0.0718  6.4474  2.4322  1.0997 0.32150  4.495  9.117 29.574 26.375  0.0000  0.0000  0.0000
 1997 193    45    44    990 15.1677  0.0801  9.3045  3.1091  1.2082 0.45576  4.664  9.473 26.787 25.187  0.0000  0.0000  0.0000
 1997 194    46    45   1090 16.9645  0.0957 10.2186  3.4255  1.5466 0.53412  4.845  9.830 29.811 27.145  0.0000  0.0000  0.0000
 1997 195    47    46   1185 17.3207  0.1118  9.7080  3.6029  1.7428 0.57334  5.007 10.153 30.810 28.144  0.0000  0.0000  0.0000
 1997 196    48    47   1256 13.2035  0.1176  7.4210  2.7082  1.3345 0.46186  5.120 10.359 28.310 25.644  0.0000  0.0000  0.0000
 1997 197    49    48   1313 10.6398  0.1134  6.0789  2.1524  1.0417 0.38713  5.203 10.507 24.785 23.186  0.0000  0.0000  0.0000
 1997 198    50    49   1415 18.0669  0.1387 10.3633  3.6886  1.6686 0.69023  5.354 10.816 28.388 25.900  0.0000  0.0000  0.0000
 1997 199    51    50   1525 19.1613  0.1536 11.0718  3.8967  1.6902 0.77023  5.502 11.127 27.467 25.157  0.0000  0.0000  0.0000
 1997 200    52    51   1644 20.7758  0.1775 12.0709  4.1428  1.9641 0.86305  5.651 11.436 29.012 26.133  4.3931 51.0000 13.0430
 1997 201    53    52   1740 17.3779  0.1852  9.7658  3.5284  1.6584 0.74150  5.757 11.652 27.243 24.436  4.2452 51.0000 13.9672
 1997 202    54    53   1804 12.3138  0.2061  6.9779  2.3239  1.5492 0.51987  5.812 11.743 28.083 24.920  4.2517 51.0000 13.9271
 1997 203    55    54   1947 24.4999  0.2320 14.4071  4.8188  2.3212 1.10926  5.971 12.073 29.146 26.126  4.3152 51.0000 13.5299
 1997 204    56    55   2072 23.0526  0.2659 12.5067  4.6820  2.5077 1.05792  6.092 12.326 30.485 27.110  4.3856 51.0000 13.0897
 1997 205    57    56   2195 23.0192  0.2919 12.4886  4.6461  2.5453 1.07845  6.203 12.555 30.200 26.861  4.4144 51.0000 12.9098
 1997 206    58    57   2339 26.2387  0.3098 14.3212  5.4021  2.5587 1.28020  6.335 12.829 28.643 25.624  4.3917 51.0000 13.0516
 1997 207    59    58   2486 27.1508  0.3597 14.8501  5.4184  3.0308 1.35259  6.460 13.081 30.562 27.365  4.4262 51.0000 12.8364
 1997 208    60    59   2628 26.7915  0.3991 14.3011  5.3551  3.2151 1.35914  6.568 13.299 31.061 27.865  4.4617 51.0000 12.6143
 1997 209    61    60   2780 28.6183  0.4305 15.3546  5.7358  3.3041 1.49820  6.684 13.529 30.560 27.364  4.4762 51.0000 12.5240
 1997 210    62    61   2892 22.0969  0.4736 11.9259  4.2597  3.0028 1.12788  6.747 13.631 29.800 27.136  4.4818 51.0000 12.4884
 1997 211    63    62   2984 18.6441  0.4807 10.2339  3.5459  2.6132 0.91937  6.787 13.676 28.299 25.635  4.4551 51.0000 12.6555
 1997 212    64    63   3060 15.8981  0.4811  8.8511  3.0049  2.2733 0.73023  6.808 13.675 26.118 24.165  4.4039 51.0000 12.9757
 1997 213    65    64   3161 20.3793  0.5211 11.0521  4.0187  2.6630 1.01519  6.854 13.737 26.798 25.023  4.3806 51.0000 13.1210
 1997 214    66    65   3317 30.2542  0.5591 15.8710  6.1407  3.5758 1.69031  6.967 13.961 29.651 26.669  4.3918 51.0000 13.0509
 1997 215    67    66   3465 29.2760  0.6001 15.2075  5.8126  3.9071 1.64910  7.064 14.148 31.617 27.676  4.4157 51.0000 12.9021
 1997 216    68    67   3570 22.3212  0.6616 11.8526  4.3106  3.3700 1.15308  7.104 14.191 28.648 26.766  4.4224 51.0000 12.8598
 1997 217    69    68   3690 24.7763  0.6676 13.0306  4.9275  3.4255 1.33133  7.160 14.277 28.793 26.131  4.4185 51.0000 12.8844
 1997 218    70    69   3760 16.0375  0.6596  8.7325  3.0855  2.7109 0.65705  7.151 14.207 26.873 24.388  4.3895 51.0000 13.0657
 1997 219    71    70   3870 23.7497  0.7143 12.2888  4.7824  3.4925 1.21800  7.191 14.258 28.791 26.129  4.3899 51.0000 13.0633
 1997 220    72    71   4029 31.8959  0.7185 16.3846  6.6215  3.8335 1.88123  7.297 14.463 28.900 25.599  4.3831 51.0000 13.1054
 1997 221    73    72   4149 25.9639  0.8036 13.2639  5.1999  4.0235 1.39826  7.344 14.527 30.044 27.063  4.3958 51.0000 13.0263
 1997 222    74    73   4305 32.1832  0.8328 16.3707  6.6536  4.2149 1.90160  7.434 14.694 28.869 26.385  4.3986 51.0000 13.0087
 1997 223    75    74   4462 32.6283  0.8740 16.4895  6.7475  4.3865 1.95693  7.522 14.855 29.458 26.513  4.4025 51.0000 12.9846
 1997 224    76    75   4600 29.5704  0.9170 14.9920  6.1078  4.1972 1.69411  7.580 14.946 28.770 26.073  4.4009 51.0000 12.9946
 1997 225    77    76   4740 30.4814  0.9820 15.2820  6.2579  4.5821 1.77552  7.637 15.035 29.382 26.934  4.4085 51.0000 12.9467
 1997 226    78    77   4874 29.9721  1.0245 14.7912  6.1460  4.7947 1.72086  7.682 15.101 30.203 27.365  4.4193 51.0000 12.8791
 1997 227    79    78   4943 18.6967  1.0422  9.5197  3.8987  3.6987 0.60771  7.629 14.939 26.751 25.332  4.4088 51.0000 12.9448
 1997 228    80    79   5081 31.1529  1.0249 14.9507  6.4992  5.0698 1.79597  7.682 15.028 31.921 27.381  4.4188 51.0000 12.8827
 1997 229    81    80   5185 25.5942  1.1104 12.4727  5.3717  4.6290 1.21937  7.678 14.981 29.362 26.879  4.4235 51.0000 12.8530
 1997 230    82    81   5315 30.5352  1.1155 14.4449  6.3547  5.4102 1.71818  7.715 15.035 32.128 28.050  4.4372 51.0000 12.7675
 1997 231    83    82   5463 33.0465  1.1252 16.0464  7.1058  4.8331 1.95792  7.774 15.136 29.034 25.843  4.4314 51.0000 12.8040
 1997 232    84    83   5605 32.5583  1.1899 15.6694  7.0681  4.8873 1.86264  7.816 15.200 28.359 25.877  4.4264 51.0000 12.8350
 1997 233    85    84   5758 35.4915  1.2645 16.4415  7.4779  6.1241 2.17163  7.872 15.304 31.917 28.478  4.4418 51.0000 12.7389
 1997 234    86    85   5869 28.5977  1.3092 13.1706  6.0354  5.7860 1.42862  7.865 15.258 31.866 28.321  4.4546 51.0000 12.6585
 1997 235    87    86   5901 14.9798  0.0000  4.7959  3.1498  4.7689 1.02144  8.047 15.578 30.865 27.320  4.5296 50.8551 12.3348
 1997 236    88    87   6013 29.1760  1.3389 13.4517  6.5019  5.2637 1.37051  8.033 15.514 29.945 26.578  4.5240 50.8646 12.3606
 1997 237    89    88   6152 33.8548  1.3873 15.5995  7.3822  5.9188 1.93518  8.062 15.548 30.860 27.529  4.5256 50.8730 12.3418
 1997 238    90    89   6259 28.9040  1.4062 13.1330  6.5583  5.4104 1.24110  8.031 15.451 29.975 26.679  4.5212 50.8809 12.3614
 1997 239    91    90   6374 30.8183  1.4443 13.7167  6.9425  5.9030 1.44005  8.010 15.383 30.940 27.574  4.5233 50.8878 12.3418
 1997 240    92    91   6431 20.0553  1.3988  8.7725  4.6559  4.9698 0.67325  7.935 15.187 30.528 26.277  4.5168 50.8942 12.3758
 1997 241    93    92   6565 33.9381  1.4473 15.1020  7.7855  5.7682 1.80459  7.945 15.195 29.769 26.687  4.5134 50.9000 12.3911
 1997 242    94    93   6694 33.1458  1.4977 14.7596  7.6532  5.7212 1.69861  7.942 15.173 28.913 26.575  4.5096 50.9054 12.4095
 1997 243    95    94   6825 33.5535  1.5138 14.9493  7.6888  5.8683 1.81146  7.949 15.173 29.632 26.692  4.5069 50.9103 12.4218
 1997 244    96    95   6937 31.2708  1.5550 13.4613  7.1422  6.2873 1.50306  7.923 15.105 31.350 27.809  4.5105 50.9146 12.3950
 1997 245    97    96   7049 30.9196  1.5834 13.5952  7.2034  5.8939 1.44803  7.894 15.026 29.344 26.865  4.5088 50.9187 12.4014
 1997 246    98    97   7114 22.3476  1.5769  9.6050  5.4694  5.0579 0.82929  7.817 14.834 27.674 25.691  4.5007 50.9227 12.4477
 1997 247    99    98   7177 22.6879  1.5923  9.4182  5.5344  5.4202 0.82473  7.734 14.638 28.924 26.623  4.4983 50.9262 12.4591
 1997 248   100    99   7288 30.9154  1.5678 13.2046  7.2134  6.1579 1.47384  7.707 14.573 30.843 27.303  4.4995 50.9293 12.4490
 1997 249   101   100   7369 25.7649  1.5709 10.8710  6.2123  5.6343 0.94953  7.637 14.409 29.924 26.562  4.4971 50.9322 12.4611
 1997 250   102   101   7470 29.2099  1.5651 12.5887  7.0474  5.6226 1.20370  7.589 14.297 29.088 26.080  4.4926 50.9350 12.4864
 1997 251   103   102   7590 32.6950  1.6040 13.7794  7.6887  6.2368 1.71092  7.578 14.278 30.087 27.079  4.4929 50.9375 12.4821
 1997 252   104   103   7651 22.8713  1.6396  9.1106  5.5647  5.8659 0.86737  7.493 14.087 30.169 27.338  4.4942 50.9399 12.4713
 1997 253   105   104   7738 27.2787  1.6023 11.2854  6.7183  5.6964 1.05011  7.426 13.940 29.167 26.337  4.4913 50.9421 12.4872
 1997 254   106   105   7823 26.5921  1.5929 11.0317  6.6489  5.3866 1.05485  7.361 13.799 27.916 25.617  4.4855 50.9443 12.5212
 1997 255   107   106   7930 30.8344  1.6069 12.6359  7.4629  6.1179 1.42172  7.324 13.728 29.997 26.814  4.4850 50.9462 12.5227
 1997 256   108   107   8036 30.9929  1.6496 12.4024  7.1723  6.9163 1.59863  7.298 13.685 31.912 28.553  4.4906 50.9478 12.4860
 1997 257   109   108   8126 27.4610  1.5984 11.4249  6.8048  5.4199 1.12594  7.238 13.560 28.162 25.333  4.4844 50.9495 12.5227
 1997 258   110   109   8230 30.3017  1.6535 12.1969  7.1205  6.5091 1.57965  7.211 13.516 30.909 27.550  4.4865 50.9510 12.5085
 1997 259   111   110   8333 29.5286  1.6127 12.1398  7.1100  5.7824 1.51625  7.183 13.469 29.323 25.788  4.4826 50.9525 12.5315
 1997 260   112   111   8438 30.0207  1.6599 12.2886  7.0546  6.1414 1.69250  7.166 13.448 29.905 26.547  4.4814 50.9538 12.5376
 1997 261   113   112   8490 17.6587  0.0000  5.3858  3.9156  4.6321 1.86155  7.401 13.922 25.744 24.153  4.5027 50.8958 12.4621
 1997 262   114   113   8574 26.2658  1.7565 10.8609  6.4809  5.7695 1.21554  7.334 13.784 28.738 26.088  4.5147 50.8676 12.4153
 1997 263   115   114   8643 24.1298  1.7876  9.5831  5.8281  6.2974 1.00401  7.243 13.597 30.569 27.565  4.5280 50.8455 12.3544
 1997 264   116   115   8742 29.7331  1.7839 11.3806  6.8042  7.0610 1.80870  7.218 13.570 31.899 28.542  4.5312 50.8490 12.3310
 1997 265   117   116   8831 27.8056  1.8123 10.6684  6.2666  7.0963 1.62294  7.175 13.501 31.981 28.802  4.5347 50.8523 12.3055
 1997 266   118   117   8868 14.5974  0.0000  4.3420  3.0649  4.6668 1.17126  7.328 13.797 26.817 24.345  4.5505 50.8104 12.2490
 1997 267   119   118   8960 27.0946  1.8356 10.8395  6.2365  6.2992 1.84551  7.302 13.766 30.376 26.987  4.5613 50.7895 12.2025
 1997 268   120   119   9005 16.7058  0.0000  4.8617  3.7081  4.9557 1.39657  7.476 14.112 27.315 24.844  4.5784 50.7462 12.1387
 1997 269   121   120   9078 23.9118  1.8937  9.3512  5.4992  6.3480 1.41347  7.403 13.979 31.500 27.335  4.5877 50.7299 12.0972
 1997 270   122   121   9210 28.0614  0.0000  4.4170  2.8107  7.426210.34759  8.481 16.391 32.803 29.274  4.5741 50.7673 12.1443

*DSSAT Cropping System Model Ver. 4.5.1.023 -Stub         NOV 06, 2014; 23:59:41
                                                                                
*RUN   3        : 97 DATE2 CHINESE          CRGRO045 GHNY9701    3              
 MODEL          : CRGRO045 - Peanut                                             
 EXPERIMENT     : GHNY9701 PN 1997 VARIETY X PLANTING DATE EXPERIMENT           
 DATA PATH      :                                                               
 TREATMENT  3   : 97 DATE2 CHINESE          CRGRO045                            
  
@YEAR DOY   DAS   DAP   TWAD    PHAD    CMAD    CGRD    GRAD    MRAD    CHAD   CL%D   CS%D   TGNN   TGAV    GN%D    GL%D    GC%D
 1997 177     1     0      0  0.0000  0.0000  0.0000  0.0000  0.0000 0.00000  0.000  0.000 30.158 27.136  0.0000  0.0000  0.0000
 1997 178     2     1      0  0.0000  0.0000  0.0000  0.0000  0.0000 0.00000  0.000  0.000 30.579 27.379  0.0000  0.0000  0.0000
 1997 179     3     2      0  0.0000  0.0000  0.0000  0.0000  0.0000 0.00000  0.000  0.000 30.295 26.455  0.0000  0.0000  0.0000
 1997 180     4     3      0  0.0000  0.0000  0.0000  0.0000  0.0000 0.00000  0.000  0.000 29.484 26.746  0.0000  0.0000  0.0000
 1997 181     5     4      0  0.0000  0.0000  0.0000  0.0000  0.0000 0.00000  0.000  0.000 28.537 26.368  0.0000  0.0000  0.0000
 1997 182     6     5      0  0.0000  0.0000  0.0000  0.0000  0.0000 0.00000  0.000  0.000 28.789 27.189  0.0000  0.0000  0.0000
 1997 183     7     6      0  0.0000  0.0000  0.0000  0.0000  0.0000 0.00000  0.000  0.000 28.552 26.419  0.0000  0.0000  0.0000
 1997 184     8     7     20  0.0000  0.0009  0.0010  0.0001  0.0000 0.00000  2.959  5.916 26.394 23.905  0.0000  0.0000  0.0000
 1997 185     9     8     21  0.1878  0.0010  0.1679  0.0212  0.0200 0.00000  2.936  5.831 27.814 25.148  0.0000  0.0000  0.0000
 1997 186    10     9     23  0.3166  0.0011  0.2189  0.0605  0.0293 0.00000  2.906  5.751 28.720 26.515  0.0000  0.0000  0.0000
 1997 187    11    10     26  0.3595  0.0011  0.2535  0.0712  0.0320 0.00000  2.890  5.691 28.677 26.153  0.0000  0.0000  0.0000
 1997 188    12    11     28  0.4439  0.0012  0.3181  0.0905  0.0362 0.00000  2.889  5.635 27.972 25.661  0.0000  0.0000  0.0000
 1997 189    13    12     32  0.5826  0.0014  0.4138  0.1127  0.0470 0.00000  2.888  5.593 29.234 26.390  0.0000  0.0000  0.0000
 1997 190    14    13     37  0.7019  0.0015  0.4776  0.1334  0.0574 0.00000  2.884  5.574 30.075 26.876  0.0000  0.0000  0.0000
 1997 191    15    14     41  0.6653  0.0017  0.4328  0.1428  0.0520 0.00000  2.876  5.568 26.835 25.342  0.0000  0.0000  0.0000
 1997 192    16    15     46  0.7853  0.0019  0.5202  0.1631  0.0650 0.00000  2.867  5.574 29.574 26.375  0.0000  0.0000  0.0000
 1997 193    17    16     53  1.0675  0.0021  0.7268  0.2063  0.0749 0.00000  2.862  5.608 26.787 25.187  0.0000  0.0000  0.0000
 1997 194    18    17     61  1.2859  0.0025  0.8792  0.2499  0.1022 0.00000  2.852  5.646 29.811 27.145  0.0000  0.0000  0.0000
 1997 195    19    18     69  1.3837  0.0030  0.8807  0.2782  0.1206 0.00000  2.839  5.662 30.810 28.144  0.0000  0.0000  0.0000
 1997 196    20    19     76  1.1514  0.0032  0.6927  0.2552  0.0959 0.00000  2.829  5.634 28.310 25.644  0.0000  0.0000  0.0000
 1997 197    21    20     81  1.0223  0.0032  0.6210  0.2280  0.0777 0.00000  2.821  5.608 24.785 23.186  0.0000  0.0000  0.0000
 1997 198    22    21     92  1.6812  0.0039  1.1413  0.3383  0.1304 0.00000  2.820  5.602 28.388 25.900  0.0000  0.0000  0.0000
 1997 199    23    22    104  1.9002  0.0043  1.2753  0.3944  0.1398 0.00000  2.819  5.597 27.467 25.157  0.0000  0.0000  0.0000
 1997 200    24    23    118  2.2264  0.0050  1.4680  0.4656  0.1738 0.00000  2.817  5.592 29.012 26.133  0.0000  0.0000  0.0000
 1997 201    25    24    130  2.1184  0.0053  1.2576  0.4834  0.1569 0.00000  2.812  5.581 27.243 24.436  0.0000  0.0000  0.0000
 1997 202    26    25    140  1.7892  0.0060  1.0624  0.3973  0.1550 0.00056  2.808  5.564 28.083 24.920  0.0000  0.0000  0.0000
 1997 203    27    26    160  3.2372  0.0000  1.9976  0.5997  0.2455 0.12466  3.601  7.340 29.146 26.126  0.0000  0.0000  0.0000
 1997 204    28    27    181  3.3705  0.0103  2.1990  0.6950  0.2837 0.01446  3.577  7.211 30.485 27.110  0.0000  0.0000  0.0000
 1997 205    29    28    203  3.6866  0.0115  2.2893  0.7885  0.3091 0.02288  3.586  7.181 30.200 26.861  0.0000  0.0000  0.0000
 1997 206    30    29    230  4.3434  0.0125  2.7677  0.9204  0.3275 0.03552  3.630  7.241 28.643 25.624  0.0000  0.0000  0.0000
 1997 207    31    30    260  4.9555  0.0152  3.0436  1.0525  0.4200 0.05016  3.701  7.370 30.562 27.365  0.0000  0.0000  0.0000
 1997 208    32    31    291  5.3629  0.0178  3.1906  1.1559  0.4771 0.06507  3.787  7.536 31.061 27.865  0.0000  0.0000  0.0000
 1997 209    33    32    327  6.1197  0.0203  3.7304  1.2886  0.5229 0.08692  3.901  7.772 30.560 27.364  0.0000  0.0000  0.0000
 1997 210    34    33    357  5.5329  0.0239  3.1511  1.2111  0.5066 0.09161  3.995  7.967 29.800 27.136  0.0000  0.0000  0.0000
 1997 211    35    34    386  5.2377  0.0257  3.0041  1.1430  0.4614 0.09819  4.087  8.158 28.299 25.635  0.0000  0.0000  0.0000
 1997 212    36    35    414  4.8958  0.0272  2.8250  1.0628  0.4143 0.10182  4.174  8.339 26.118 24.165  0.0000  0.0000  0.0000
 1997 213    37    36    449  6.2899  0.0317  3.6048  1.3741  0.5189 0.14303  4.294  8.593 26.798 25.023  0.0000  0.0000  0.0000
 1997 214    38    37    507  9.0091  0.0368  5.8774  1.7370  0.7473 0.23453  4.500  9.033 29.651 26.669  0.0000  0.0000  0.0000
 1997 215    39    38    566  9.6083  0.0432  5.9865  1.9173  0.8782 0.25182  4.668  9.387 31.617 27.676  0.0000  0.0000  0.0000
 1997 216    40    39    613  8.4287  0.0521  4.7429  1.7970  0.7937 0.23833  4.794  9.653 28.648 26.766  0.0000  0.0000  0.0000
 1997 217    41    40    667  9.6665  0.0561  5.5051  2.0480  0.8525 0.29065  4.941  9.961 28.793 26.131  0.0000  0.0000  0.0000
 1997 218    42    41    707  7.2668  0.0587  4.1380  1.5082  0.6784 0.22835  5.036 10.152 26.873 24.388  0.0000  0.0000  0.0000
 1997 219    43    42    767 10.4295  0.0690  6.0391  2.1425  0.9482 0.34595  5.187 10.459 28.791 26.129  0.0000  0.0000  0.0000
 1997 220    44    43    853 13.4765  0.0740  8.5956  2.5893  1.0980 0.48968  5.388 10.879 28.900 25.599  0.0000  0.0000  0.0000
 1997 221    45    44    921 12.5445  0.0914  6.9515  2.6073  1.2193 0.45529  5.545 11.187 30.044 27.063  0.0000  0.0000  0.0000
 1997 222    46    45   1012 15.2339  0.1036  9.2864  2.9823  1.3376 0.58651  5.743 11.566 28.869 26.385  0.0000  0.0000  0.0000
 1997 223    47    46   1105 16.2574  0.1188  9.4104  3.2896  1.4630 0.65127  5.933 11.932 29.458 26.513  4.4359 51.0000 12.7755
 1997 224    48    47   1191 15.7810  0.1358  8.7454  3.2790  1.4512 0.64816  6.092 12.237 28.770 26.073  4.3953 51.0000 13.0294
 1997 225    49    48   1283 16.9144  0.1590  9.2879  3.4945  1.6515 0.71421  6.239 12.532 29.382 26.934  4.4474 51.0000 12.7035
 1997 226    50    49   1377 17.4630  0.1793  9.5224  3.5885  1.7951 0.75456  6.373 12.807 30.203 27.365  4.4875 51.0000 12.4534
 1997 227    51    50   1441 12.1175  0.1954  6.8202  2.3930  1.3589 0.49235  6.436 12.907 26.751 25.332  4.4093 51.0000 12.9419
 1997 228    52    51   1546 19.1852  0.2035 10.5904  3.8867  2.0234 0.86240  6.581 13.200 31.921 27.381  4.4510 51.0000 12.6814
 1997 229    53    52   1634 16.8006  0.2392  9.1384  3.4107  1.8714 0.74000  6.679 13.383 29.362 26.879  4.4590 51.0000 12.6310
 1997 230    54    53   1739 20.0587  0.2552 10.6763  4.1049  2.2910 0.92991  6.806 13.637 32.128 28.050  4.4982 51.0000 12.3861
 1997 231    55    54   1859 21.5712  0.2727 12.1441  4.3627  2.0990 1.03794  6.947 13.912 29.034 25.843  4.4646 51.0000 12.5965
 1997 232    56    55   1975 21.8654  0.3079 11.8179  4.5453  2.1807 1.06073  7.073 14.156 28.359 25.877  4.4420 51.0000 12.7372
 1997 233    57    56   2107 24.1932  0.3490 13.3167  4.7915  2.8293 1.22443  7.210 14.423 31.917 28.478  4.4832 51.0000 12.4801
 1997 234    58    57   2212 20.9503  0.3819 10.9735  4.2410  2.7138 1.01083  7.296 14.575 31.866 28.321  4.5111 51.0000 12.3059
 1997 235    59    58   2264 11.8994  0.4033  6.3175  2.2874  2.1310 0.37175  7.271 14.475 30.865 27.320  4.5139 51.0000 12.2883
 1997 236    60    59   2371 21.7294  0.4081 11.2304  4.6119  2.5556 1.00549  7.352 14.619 29.945 26.578  4.5017 51.0000 12.3642
 1997 237    61    60   2495 24.9533  0.4461 12.8041  5.2788  2.9701 1.23139  7.459 14.822 30.860 27.529  4.5095 51.0000 12.3155
 1997 238    62    61   2602 22.2845  0.4726 11.3780  4.7721  2.7500 0.99245  7.522 14.922 29.975 26.679  4.5010 51.0000 12.3687
 1997 239    63    62   2716 23.9194  0.5090 12.0963  5.1115  3.0825 1.11069  7.596 15.045 30.940 27.574  4.5089 51.0000 12.3192
 1997 240    64    63   2785 16.4909  0.5103  8.2727  3.5710  2.5491 0.50693  7.579 14.963 30.528 26.277  4.4953 51.0000 12.4044
 1997 241    65    64   2910 26.1997  0.5473 13.0417  5.7792  3.1339 1.24105  7.664 15.118 29.769 26.687  4.4900 51.0000 12.4374
 1997 242    66    65   3032 26.0509  0.5899 12.8678  5.8054  3.1677 1.18449  7.731 15.231 28.913 26.575  4.4840 51.0000 12.4750
 1997 243    67    66   3154 26.6293  0.6168 13.0326  5.9632  3.3127 1.21031  7.795 15.339 29.632 26.692  4.4806 51.0000 12.4960
 1997 244    68    67   3267 25.5729  0.6548 12.3237  5.6984  3.6112 1.09720  7.839 15.397 31.350 27.809  4.4921 51.0000 12.4245
 1997 245    69    68   3377 25.4439  0.6883 12.1766  5.8503  3.4347 0.99821  7.862 15.412 29.344 26.865  4.4902 51.0000 12.4362
 1997 246    70    69   3450 19.1079  0.7021  9.0902  4.5753  2.9258 0.51254  7.823 15.276 27.674 25.691  4.4736 51.0000 12.5398
 1997 247    71    70   3522 19.5281  0.7235  9.0295  4.7038  3.1938 0.52475  7.781 15.139 28.924 26.623  4.4710 51.0000 12.5565
 1997 248    72    71   3630 25.9666  0.7239 12.0897  6.0854  3.7627 0.94041  7.798 15.140 30.843 27.303  4.4761 51.0000 12.5242
 1997 249    73    72   3715 22.2016  0.7395 10.2886  5.3519  3.4540 0.62142  7.773 15.039 29.924 26.562  4.4729 51.0000 12.5446
 1997 250    74    73   3812 24.8809  0.7496 11.4110  6.1161  3.5164 0.70310  7.755 14.963 29.088 26.080  4.4649 51.0000 12.5942
 1997 251    75    74   3922 27.4678  0.7820 12.4524  6.6837  3.9636 0.88742  7.758 14.938 30.087 27.079  4.4680 51.0000 12.5751
 1997 252    76    75   3990 20.1593  0.8094  8.6392  5.0935  3.7140 0.59225  7.718 14.812 30.169 27.338  4.4731 51.0000 12.5429
 1997 253    77    76   4076 23.7172  0.8010 10.4041  6.0257  3.6901 0.71312  7.697 14.732 29.167 26.337  4.4684 51.0000 12.5723
 1997 254    78    77   4159 23.2016  0.8079 10.0714  6.0457  3.5205 0.72173  7.679 14.656 27.916 25.617  4.4575 51.0000 12.6404
 1997 255    79    78   4258 26.5842  0.8272 11.4741  6.8163  4.0388 0.81691  7.670 14.606 29.997 26.814  4.4585 51.0000 12.6345
 1997 256    80    79   4355 26.8493  0.8595 11.2897  6.7971  4.5872 0.82272  7.655 14.547 31.912 28.553  4.4731 51.0000 12.5434
 1997 257    81    80   4439 24.0391  0.8339 10.0978  6.4904  3.5808 0.79048  7.643 14.493 28.162 25.333  4.4605 51.0000 12.6219
 1997 258    82    81   4531 26.3936  0.8754 10.8788  6.9396  4.3192 0.84342  7.629 14.440 30.909 27.550  4.4667 51.0000 12.5831
 1997 259    83    82   4622 25.7337  0.8543 10.7059  6.9332  3.8270 0.86290  7.624 14.405 29.323 25.788  4.4593 51.0000 12.6296
 1997 260    84    83   4715 26.1509  0.8856 10.8201  6.9978  4.0610 0.88348  7.617 14.367 29.905 26.547  4.4581 51.0000 12.6371
 1997 261    85    84   4771 16.0157  0.0000  4.8728  3.7913  2.9735 2.43420  8.164 15.521 25.744 24.153  4.5052 50.8781 12.4641
 1997 262    86    85   4853 23.2614  0.0000  7.6523  6.1838  3.7925 2.19700  8.656 16.534 28.738 26.088  4.5655 50.7472 12.2184
 1997 263    87    86   4923 21.5564  0.0000  7.0637  5.7140  4.1183 1.56823  9.016 17.239 30.569 27.565  4.6166 50.6532 11.9930
 1997 264    88    87   5010 25.6383  1.1385 10.6770  6.7690  4.6358 0.89566  8.956 17.074 31.899 28.542  4.6448 50.6153 11.8546
 1997 265    89    88   5088 24.1928  1.1515  9.7438  6.4552  4.6487 0.85457  8.887 16.899 31.981 28.802  4.6708 50.5831 11.7246
 1997 266    90    89   5128 13.2154  0.0000  3.9929  3.1035  2.9514 1.62023  9.252 17.632 26.817 24.345  4.6959 50.5159 11.6350
 1997 267    91    90   5207 23.3690  0.0000  7.8540  6.2729  4.1024 1.59021  9.597 18.309 30.376 26.987  4.7340 50.4397 11.4728
 1997 268    92    91   5254 14.8942  0.0000  4.4646  3.6777  3.1425 1.68623  9.969 19.051 27.315 24.844  4.7583 50.3770 11.3834
 1997 269    93    92   5320 20.7737  0.0000  6.7430  5.6136  4.0969 1.19383 10.233 19.545 31.500 27.335  4.7890 50.3193 11.2496
 1997 270    94    93   5396 23.4471  1.3911  9.3657  6.2061  4.7808 0.88930 10.109 19.264 32.803 29.274  4.8069 50.3016 11.1554
 1997 271    95    94   5471 22.5402  1.3097  9.3000  6.1882  3.8542 0.88481 10.000 19.017 30.377 25.967  4.8120 50.2847 11.1404
 1997 272    96    95   5543 22.4118  1.3886  8.9300  5.9302  4.6101 0.87821  9.875 18.743 32.300 28.772  4.8255 50.2704 11.0699
 1997 273    97    96   5611 21.2462  1.3758  8.5334  5.6929  4.2769 0.83527  9.747 18.466 31.298 27.771  4.8343 50.2586 11.0269
 1997 274    98    97   5681 21.4806  1.3970  8.5349  5.5004  4.6574 0.96849  9.632 18.223 32.051 29.054  4.8453 50.2488 10.9680
 1997 275    99    98   5754 22.0205  1.3954  8.7477  5.5373  4.7874 1.09956  9.537 18.021 32.465 29.292  4.8557 50.2407 10.9112
 1997 276   100    99   5815 18.2173  1.2873  7.6892  4.9910  3.1468 0.80563  9.422 17.781 26.634 23.814  4.8509 50.2323 10.9493
 1997 277   101   100   5909 19.6822  0.0000  4.1560  2.8064  3.7358 6.23551 10.574 20.289 29.948 25.720  4.8149 50.3012 11.1060

*DSSAT Cropping System Model Ver. 4.5.1.023 -Stub         NOV 06, 2014; 23:59:41
                                                                                
*RUN   4        : 97 DATE2 F-MIX            CRGRO045 GHNY9701    4              
 MODEL          : CRGRO045 - Peanut                                             
 EXPERIMENT     : GHNY9701 PN 1997 VARIETY X PLANTING DATE EXPERIMENT           
 DATA PATH      :                                                               
 TREATMENT  4   : 97 DATE2 F-MIX            CRGRO045                            
  
@YEAR DOY   DAS   DAP   TWAD    PHAD    CMAD    CGRD    GRAD    MRAD    CHAD   CL%D   CS%D   TGNN   TGAV    GN%D    GL%D    GC%D
 1997 177     1     0      0  0.0000  0.0000  0.0000  0.0000  0.0000 0.00000  0.000  0.000 30.158 27.136  0.0000  0.0000  0.0000
 1997 178     2     1      0  0.0000  0.0000  0.0000  0.0000  0.0000 0.00000  0.000  0.000 30.579 27.379  0.0000  0.0000  0.0000
 1997 179     3     2      0  0.0000  0.0000  0.0000  0.0000  0.0000 0.00000  0.000  0.000 30.295 26.455  0.0000  0.0000  0.0000
 1997 180     4     3      0  0.0000  0.0000  0.0000  0.0000  0.0000 0.00000  0.000  0.000 29.484 26.746  0.0000  0.0000  0.0000
 1997 181     5     4      0  0.0000  0.0000  0.0000  0.0000  0.0000 0.00000  0.000  0.000 28.537 26.368  0.0000  0.0000  0.0000
 1997 182     6     5      0  0.0000  0.0000  0.0000  0.0000  0.0000 0.00000  0.000  0.000 28.789 27.189  0.0000  0.0000  0.0000
 1997 183     7     6      0  0.0000  0.0000  0.0000  0.0000  0.0000 0.00000  0.000  0.000 28.552 26.419  0.0000  0.0000  0.0000
 1997 184     8     7      0  0.0000  0.0000  0.0000  0.0000  0.0000 0.00000  0.000  0.000 26.394 23.905  0.0000  0.0000  0.0000
 1997 185     9     8     25  0.0000  0.0012  0.0014  0.0002  0.0000 0.00000  2.956  5.910 27.814 25.148  0.0000  0.0000  0.0000
 1997 186    10     9     27  0.3410  0.0013  0.3017  0.0387  0.0327 0.00000  2.932  5.822 28.720 26.515  0.0000  0.0000  0.0000
 1997 187    11    10     30  0.3693  0.0014  0.2692  0.0630  0.0350 0.00000  2.894  5.749 28.677 26.153  0.0000  0.0000  0.0000
 1997 188    12    11     33  0.4333  0.0015  0.3027  0.0889  0.0384 0.00000  2.890  5.684 27.972 25.661  0.0000  0.0000  0.0000
 1997 189    13    12     37  0.5854  0.0016  0.4412  0.1089  0.0498 0.00000  2.888  5.631 29.234 26.390  0.0000  0.0000  0.0000
 1997 190    14    13     41  0.6948  0.0018  0.5062  0.1285  0.0599 0.00000  2.883  5.607 30.075 26.876  0.0000  0.0000  0.0000
 1997 191    15    14     45  0.6504  0.0019  0.4364  0.1329  0.0541 0.00000  2.874  5.589 26.835 25.342  0.0000  0.0000  0.0000
 1997 192    16    15     50  0.7651  0.0021  0.5120  0.1518  0.0669 0.00000  2.864  5.591 29.574 26.375  0.0000  0.0000  0.0000
 1997 193    17    16     57  1.0510  0.0000  0.7136  0.1906  0.0767 0.00220  2.967  5.723 26.787 25.187  0.0000  0.0000  0.0000
 1997 194    18    17     65  1.2498  0.0028  0.8724  0.2317  0.1032 0.00000  2.947  5.722 29.811 27.145  0.0000  0.0000  0.0000
 1997 195    19    18     73  1.3399  0.0033  0.8823  0.2581  0.1211 0.00000  2.925  5.712 30.810 28.144  0.0000  0.0000  0.0000
 1997 196    20    19     80  1.0987  0.0035  0.6876  0.2216  0.0959 0.00000  2.904  5.687 28.310 25.644  0.0000  0.0000  0.0000
 1997 197    21    20     85  0.9328  0.0034  0.5717  0.2041  0.0762 0.00000  2.889  5.647 24.785 23.186  0.0000  0.0000  0.0000
 1997 198    22    21     95  1.5683  0.0042  1.0664  0.3161  0.1271 0.00000  2.880  5.625 28.388 25.900  0.0000  0.0000  0.0000
 1997 199    23    22    106  1.7812  0.0045  1.1921  0.3685  0.1359 0.00000  2.871  5.608 27.467 25.157  0.0000  0.0000  0.0000
 1997 200    24    23    119  2.0891  0.0052  1.3748  0.4353  0.1682 0.00000  2.863  5.593 29.012 26.133  0.0000  0.0000  0.0000
 1997 201    25    24    130  1.9785  0.0054  1.1775  0.4485  0.1514 0.00000  2.853  5.577 27.243 24.436  0.0000  0.0000  0.0000
 1997 202    26    25    139  1.6484  0.0060  0.9820  0.3628  0.1487 0.00000  2.840  5.547 28.083 24.920  0.0000  0.0000  0.0000
 1997 203    27    26    158  3.0504  0.0000  1.8734  0.5614  0.2359 0.12849  4.203  6.568 29.146 26.126  0.0000  0.0000  0.0000
 1997 204    28    27    178  3.1774  0.0101  2.0937  0.6546  0.2723 0.00000  4.030  6.393 30.485 27.110  0.0000  0.0000  0.0000
 1997 205    29    28    199  3.4837  0.0111  2.1974  0.7446  0.2965 0.00046  3.884  6.255 30.200 26.861  0.0000  0.0000  0.0000
 1997 206    30    29    225  4.1403  0.0118  2.6882  0.8770  0.3152 0.00782  3.781  6.209 28.643 25.624  0.0000  0.0000  0.0000
 1997 207    31    30    253  4.7364  0.0140  2.9680  1.0084  0.4046 0.01752  3.719  6.236 30.562 27.365  0.0000  0.0000  0.0000
 1997 208    32    31    283  5.1739  0.0160  3.1387  1.1151  0.4621 0.02864  3.694  6.321 31.061 27.865  0.0000  0.0000  0.0000
 1997 209    33    32    319  5.9441  0.0179  3.6975  1.2545  0.5086 0.04393  3.703  6.465 30.560 27.364  0.0000  0.0000  0.0000
 1997 210    34    33    349  5.3920  0.0208  3.1059  1.1910  0.4940 0.05016  3.720  6.601 29.800 27.136  0.0000  0.0000  0.0000
 1997 211    35    34    377  5.1170  0.0221  2.9689  1.1274  0.4505 0.05739  3.751  6.743 28.299 25.635  0.0000  0.0000  0.0000
 1997 212    36    35    404  4.7867  0.0232  2.7937  1.0502  0.4047 0.06249  3.788  6.884 26.118 24.165  0.0000  0.0000  0.0000
 1997 213    37    36    438  6.1870  0.0269  3.5880  1.3669  0.5086 0.09187  3.852  7.091 26.798 25.023  0.0000  0.0000  0.0000
 1997 214    38    37    496  8.9208  0.0311  5.8366  1.7484  0.7360 0.15695  3.987  7.457 29.651 26.669  0.0000  0.0000  0.0000
 1997 215    39    38    553  9.4858  0.0364  5.8670  1.9478  0.8636 0.17454  4.099  7.763 31.617 27.676  0.0000  0.0000  0.0000
 1997 216    40    39    599  8.3405  0.0438  4.7392  1.8022  0.7807 0.17136  4.187  8.000 28.648 26.766  0.0000  0.0000  0.0000
 1997 217    41    40    654  9.6352  0.0472  5.6820  2.0381  0.8424 0.21605  4.299  8.280 28.793 26.131  0.0000  0.0000  0.0000
 1997 218    42    41    694  7.2456  0.0495  4.1466  1.5393  0.6705 0.17693  4.372  8.461 26.873 24.388  0.0000  0.0000  0.0000
 1997 219    43    42    755 10.5155  0.0583  6.2603  2.1750  0.9444 0.27387  4.493  8.750 28.791 26.129  0.0000  0.0000  0.0000
 1997 220    44    43    844 13.7134  0.0628  8.8882  2.6658  1.1025 0.39785  4.665  9.157 28.900 25.599  0.0000  0.0000  0.0000
 1997 221    45    44    915 12.8082  0.0782  7.1371  2.7282  1.2271 0.37581  4.784  9.446 30.044 27.063  0.0000  0.0000  0.0000
 1997 222    46    45   1010 15.7281  0.0874  9.8299  3.1011  1.3580 0.49383  4.961  9.817 28.869 26.385  0.0000  0.0000  0.0000
 1997 223    47    46   1107 16.8393  0.0991  9.8932  3.4641  1.4911 0.55514  5.127 10.171 29.458 26.513  0.0000  0.0000  0.0000
 1997 224    48    47   1198 16.4713  0.1119  9.1726  3.4998  1.4864 0.57271  5.267 10.472 28.770 26.073  0.0000  0.0000  0.0000
 1997 225    49    48   1294 17.7893  0.1302  9.9440  3.7103  1.7011 0.64849  5.418 10.776 29.382 26.934  0.0000  0.0000  0.0000
 1997 226    50    49   1395 18.4455  0.1459 10.2494  3.8081  1.8551 0.70335  5.556 11.067 30.203 27.365  0.0000  0.0000  0.0000
 1997 227    51    50   1464 12.7732  0.1609  7.2676  2.5139  1.3992 0.51200  5.633 11.214 26.751 25.332  0.0000  0.0000  0.0000
 1997 228    52    51   1581 20.5232  0.1689 11.8427  4.0644  2.1112 0.84809  5.774 11.527 31.921 27.381  4.5339 51.0000 12.1633
 1997 229    53    52   1679 18.0014  0.2018  9.9445  3.6230  1.9561 0.76870  5.873 11.745 29.362 26.879  4.4878 51.0000 12.4513
 1997 230    54    53   1798 21.7024  0.2173 11.9576  4.3531  2.4154 0.95210  5.997 12.021 32.128 28.050  4.5587 51.0000 12.0079
 1997 231    55    54   1934 23.5724  0.2340 13.7100  4.6679  2.2310 1.08167  6.138 12.318 29.034 25.843  4.4655 51.0000 12.5906
 1997 232    56    55   2067 24.0057  0.2678 13.2647  4.9072  2.3289 1.13184  6.261 12.585 28.359 25.877  4.4254 51.0000 12.8411
 1997 233    57    56   2215 26.5844  0.3083 14.8993  5.1991  3.0333 1.27735  6.393 12.861 31.917 28.478  4.5000 51.0000 12.3752
 1997 234    58    57   2336 22.9928  0.3402 12.2962  4.5371  2.9077 1.11496  6.481 13.043 31.866 28.321  4.5394 51.0000 12.1288
 1997 235    59    58   2397 12.8877  0.3622  7.1063  2.2594  2.2671 0.57554  6.496 13.038 30.865 27.320  4.5362 51.0000 12.1487
 1997 236    60    59   2524 24.1334  0.3709 12.9593  4.8438  2.7630 1.22592  6.594 13.240 29.945 26.578  4.5144 51.0000 12.2847
 1997 237    61    60   2673 27.9808  0.4125 14.8894  5.6353  3.2385 1.47672  6.711 13.486 30.860 27.529  4.5222 51.0000 12.2363
 1997 238    62    61   2803 24.9353  0.4421 13.3808  4.9477  3.0000 1.31370  6.800 13.660 29.975 26.679  4.5082 51.0000 12.3240
 1997 239    63    62   2943 26.9314  0.4848 14.2780  5.3417  3.3837 1.45575  6.895 13.847 30.940 27.574  4.5171 51.0000 12.2680
 1997 240    64    63   3031 18.3258  0.4898  9.8912  3.4401  2.7848 0.91944  6.931 13.888 30.528 26.277  4.4982 51.0000 12.3861
 1997 241    65    64   3188 30.0054  0.5381 15.8413  6.0616  3.4866 1.70654  7.041 14.112 29.769 26.687  4.4912 51.0000 12.4303
 1997 242    66    65   3343 29.9382  0.5908 15.8458  6.0042  3.5407 1.72585  7.143 14.310 28.913 26.575  4.4836 51.0000 12.4775
 1997 243    67    66   3502 30.7361  0.6282 16.1959  6.1484  3.7231 1.80112  7.243 14.505 29.632 26.692  4.4795 51.0000 12.5030
 1997 244    68    67   3648 29.4196  0.6795 15.2829  5.7766  4.0657 1.71034  7.325 14.653 31.350 27.809  4.4937 51.0000 12.4142
 1997 245    69    68   3795 29.4523  0.7274 15.4363  5.8608  3.8889 1.73219  7.402 14.788 29.344 26.865  4.4912 51.0000 12.4300
 1997 246    70    69   3897 21.8488  0.7555 11.6801  4.2341  3.3059 1.13804  7.423 14.788 27.674 25.691  4.4708 51.0000 12.5574
 1997 247    71    70   3999 22.4226  0.7960 11.7671  4.3620  3.6261 1.15688  7.442 14.784 28.924 26.623  4.4679 51.0000 12.5753
 1997 248    72    71   4147 30.5127  0.8110 15.5776  6.1069  4.3271 1.81403  7.515 14.916 30.843 27.303  4.4745 51.0000 12.5345
 1997 249    73    72   4267 25.9294  0.8450 13.4041  5.1223  3.9749 1.43504  7.554 14.961 29.924 26.562  4.4708 51.0000 12.5577
 1997 250    74    73   4409 29.5799  0.8748 15.2306  5.9974  4.0883 1.73120  7.615 15.060 29.088 26.080  4.4615 51.0000 12.6156
 1997 251    75    74   4568 33.1828  0.9393 16.7817  6.7255  4.6578 2.04375  7.694 15.201 30.087 27.079  4.4655 51.0000 12.5906
 1997 252    76    75   4669 23.7641  0.9983 12.0489  4.6975  4.3406 1.17548  7.692 15.154 30.169 27.338  4.4722 51.0000 12.5490
 1997 253    77    76   4796 28.5637  1.0003 14.2761  5.9257  4.3584 1.55587  7.724 15.187 29.167 26.337  4.4664 51.0000 12.5852
 1997 254    78    77   4921 28.1449  1.0272 14.1258  5.9257  4.1881 1.49303  7.749 15.203 27.916 25.617  4.4530 51.0000 12.6686
 1997 255    79    78   5070 32.8033  1.0718 16.0118  6.9107  4.8959 1.88838  7.799 15.285 29.997 26.814  4.4546 51.0000 12.6586
 1997 256    80    79   5217 33.2430  1.1417 16.0134  6.7624  5.6284 1.99996  7.851 15.371 31.912 28.553  4.4719 51.0000 12.5504
 1997 257    81    80   5348 29.8777  1.1249 14.7672  6.3712  4.4466 1.62565  7.877 15.393 28.162 25.333  4.4573 51.0000 12.6421
 1997 258    82    81   5493 33.1689  1.2090 15.8829  6.9384  5.4614 1.94173  7.918 15.454 30.909 27.550  4.4649 51.0000 12.5945
 1997 259    83    82   5636 32.6653  1.1975 15.7906  7.0152  4.9192 1.86987  7.955 15.506 29.323 25.788  4.4561 51.0000 12.6494
 1997 260    84    83   5782 33.4504  1.2692 16.1048  7.1131  5.3064 1.95140  7.993 15.557 29.905 26.547  4.4549 51.0000 12.6571
 1997 261    85    84   5848 19.7260  1.2631  9.7214  4.3995  3.9258 0.63110  7.930 15.374 25.744 24.153  4.4328 51.0000 12.7949
 1997 262    86    85   5967 29.8748  1.3196 13.9934  6.6227  5.0724 1.42637  7.920 15.324 28.738 26.088  4.4296 51.0000 12.8151
 1997 263    87    86   6068 27.6412  1.3755 12.6867  6.0119  5.5788 1.18129  7.886 15.220 30.569 27.565  4.4380 51.0000 12.7625
 1997 264    88    87   6208 34.5266  1.3982 15.5611  7.4192  6.4292 1.93950  7.910 15.254 31.899 28.542  4.4524 51.0000 12.6727
 1997 265    89    88   6333 32.4082  1.4455 14.5281  6.9496  6.5072 1.70187  7.911 15.236 31.981 28.802  4.4671 51.0000 12.5805
 1997 266    90    89   6383 16.8894  0.0000  5.3431  3.6531  4.1660 2.15301  8.220 15.842 26.817 24.345  4.5374 50.8199 12.3216
 1997 267    91    90   6507 32.1514  1.5065 14.5945  7.2017  5.8383 1.61027  8.209 15.789 30.376 26.987  4.5345 50.8307 12.3289
 1997 268    92    91   6563 19.6691  1.4813  8.8988  4.6786  4.4932 0.69824  8.135 15.585 27.315 24.844  4.5169 50.8411 12.4286
 1997 269    93    92   6663 28.7032  1.5087 12.6157  6.5545  5.8893 1.14484  8.086 15.454 31.500 27.335  4.5175 50.8498 12.4158
 1997 270    94    93   6790 33.9947  1.5718 14.5945  7.4727  7.0055 1.82253  8.083 15.433 32.803 29.274  4.5291 50.8574 12.3359
 1997 271    95    94   6920 33.5309  1.4938 14.8343  7.7717  5.7227 1.75072  8.084 15.421 30.377 25.967  4.5209 50.8649 12.3795
 1997 272    96    95   7039 32.8646  1.6293 13.9926  7.3841  6.8593 1.66032  8.063 15.363 32.300 28.772  4.5291 50.8714 12.3216
 1997 273    97    96   7148 31.1234  1.6370 13.3071  7.2040  6.3920 1.39052  8.021 15.258 31.298 27.771  4.5315 50.8777 12.3006
 1997 274    98    97   7258 31.8687  1.6847 13.3671  7.2127  7.0105 1.52565  7.985 15.170 32.051 29.054  4.5401 50.8832 12.2409
 1997 275    99    98   7378 33.5718  1.6990 14.0662  7.5032  7.2787 1.80760  7.971 15.134 32.465 29.292  4.5492 50.8883 12.1793
 1997 276   100    99   7473 27.4576  1.5601 12.2594  6.8015  4.7837 1.05531  7.916 14.995 26.634 23.814  4.5294 50.8936 12.2977
 1997 277   101   100   7578 30.0331  1.6067 13.0199  7.1888  5.7074 1.31145  7.875 14.894 29.948 25.720  4.5214 50.8982 12.3428
 1997 278   102   101   7629 18.0399  0.0000  5.4702  3.8801  5.0705 1.89559  8.126 15.384 29.532 25.480  4.5588 50.8103 12.1973
 1997 279   103   102   7742 31.7624  1.7312 13.6068  7.5787  6.2898 1.68301  8.103 15.324 30.995 26.874  4.5802 50.7668 12.1067
 1997 280   104   103   7853 31.0546  1.7166 13.6259  7.6029  5.6653 1.52779  8.071 15.241 28.968 25.411  4.5925 50.7287 12.0679
 1997 281   105   104   7893 17.4234  0.0000  5.2683  3.7068  5.8317 1.02731  8.226 15.511 30.541 27.548  4.6226 50.6723 11.9364
 1997 282   106   105   7982 28.6879  1.9041 11.7898  6.9169  6.8314 1.20754  8.144 15.329 30.866 28.542  4.6437 50.6435 11.8334
 1997 283   107   106   8073 29.0266  1.8962 11.8026  6.8604  7.0589 1.35736  8.074 15.178 31.658 28.913  4.6631 50.6196 11.7358
 1997 284   108   107   8167 29.5021  1.8997 12.0227  6.9480  7.0712 1.47354  8.014 15.049 31.491 28.817  4.6802 50.5989 11.6498
 1997 285   109   108   8252 27.7728  1.8845 11.2294  6.5789  6.9452 1.26410  7.937 14.887 32.028 28.615  4.6951 50.5802 11.5756
 1997 286   110   109   8346 29.1758  1.8716 11.7456  6.9228  6.9447 1.47777  7.879 14.769 32.005 28.347  4.7099 50.5590 11.5040
 1997 287   111   110   8405 22.0599  0.0000  6.4224  5.1601  6.3463 1.53756  8.077 15.152 30.652 27.910  4.7366 50.5100 11.3864
 1997 288   112   111   8502 28.8234  1.8881 12.0577  7.1215  6.0219 1.48495  8.017 15.031 29.688 26.207  4.7406 50.4957 11.3758
 1997 289   113   112   8598 29.3965  1.9213 11.6222  7.0511  6.6184 1.52092  7.951 14.907 31.296 27.429  4.7349 50.5098 11.3968
 1997 290   114   113   8652 20.8762  0.0000  5.9961  4.8515  6.3839 1.21194  8.110 15.208 31.336 27.963  4.7571 50.4694 11.2984
 1997 291   115   114   8703 21.0621  0.0000  6.0039  4.8258  6.8727 0.91813  8.235 15.433 33.283 28.997  4.7775 50.4382 11.2025
 1997 292   116   115   8766 21.4010  0.0000  6.1913  5.2111  5.4776 1.78324  8.450 15.864 28.837 25.676  4.7982 50.3870 11.1242
 1997 293   117   116   8820 20.5461  0.0000  5.7738  4.8550  6.2714 1.14602  8.598 16.144 31.262 27.750  4.8166 50.3525 11.0435
 1997 294   118   117   8866 19.6272  0.2288  5.5754  4.7254  6.3000 0.80516  8.684 16.294 31.590 27.939  4.8336 50.3217 10.9682
 1997 295   119   118   8943 25.9818  2.2160  9.9632  6.3180  6.7444 1.44279  8.573 16.084 31.415 28.220  4.8406 50.3128 10.9335
 1997 296   120   119   9029 26.6353  2.1539 10.4961  6.4600  6.3637 1.66790  8.487 15.930 31.047 27.116  4.8437 50.3062 10.9207
 1997 297   121   120   9106 25.5303  2.2051  9.7305  5.9944  6.9248 1.58655  8.389 15.751 32.185 28.536  4.8497 50.3001 10.8894
 1997 298   122   121   9217 25.0012  0.0000  4.5602  3.0059  6.5817 7.85459  9.195 17.535 31.904 27.694  4.8254 50.3521 10.9891

*DSSAT Cropping System Model Ver. 4.5.1.023 -Stub         NOV 06, 2014; 23:59:41
                                                                                
*RUN   5        : 97 DATE3 CHINESE          CRGRO045 GHNY9701    5              
 MODEL          : CRGRO045 - Peanut                                             
 EXPERIMENT     : GHNY9701 PN 1997 VARIETY X PLANTING DATE EXPERIMENT           
 DATA PATH      :                                                               
 TREATMENT  5   : 97 DATE3 CHINESE          CRGRO045                            
  
@YEAR DOY   DAS   DAP   TWAD    PHAD    CMAD    CGRD    GRAD    MRAD    CHAD   CL%D   CS%D   TGNN   TGAV    GN%D    GL%D    GC%D
 1997 205     1     0      0  0.0000  0.0000  0.0000  0.0000  0.0000 0.00000  0.000  0.000 30.200 26.861  0.0000  0.0000  0.0000
 1997 206     2     1      0  0.0000  0.0000  0.0000  0.0000  0.0000 0.00000  0.000  0.000 28.643 25.624  0.0000  0.0000  0.0000
 1997 207     3     2      0  0.0000  0.0000  0.0000  0.0000  0.0000 0.00000  0.000  0.000 30.562 27.365  0.0000  0.0000  0.0000
 1997 208     4     3      0  0.0000  0.0000  0.0000  0.0000  0.0000 0.00000  0.000  0.000 31.061 27.865  0.0000  0.0000  0.0000
 1997 209     5     4      0  0.0000  0.0000  0.0000  0.0000  0.0000 0.00000  0.000  0.000 30.560 27.364  0.0000  0.0000  0.0000
 1997 210     6     5      0  0.0000  0.0000  0.0000  0.0000  0.0000 0.00000  0.000  0.000 29.800 27.136  0.0000  0.0000  0.0000
 1997 211     7     6      0  0.0000  0.0000  0.0000  0.0000  0.0000 0.00000  0.000  0.000 28.299 25.635  0.0000  0.0000  0.0000
 1997 212     8     7     20  0.0000  0.0010  0.0011  0.0001  0.0000 0.00000  2.958  5.913 26.118 24.165  0.0000  0.0000  0.0000
 1997 213     9     8     21  0.2031  0.0010  0.1822  0.0231  0.0204 0.00000  2.934  5.827 26.798 25.023  0.0000  0.0000  0.0000
 1997 214    10     9     24  0.3907  0.0011  0.2647  0.0769  0.0336 0.00000  2.906  5.753 29.651 26.669  0.0000  0.0000  0.0000
 1997 215    11    10     26  0.4034  0.0012  0.2740  0.0838  0.0386 0.00000  2.901  5.690 31.617 27.676  0.0000  0.0000  0.0000
 1997 216    12    11     29  0.3844  0.0013  0.2605  0.0799  0.0365 0.00000  2.894  5.628 28.648 26.766  0.0000  0.0000  0.0000
 1997 217    13    12     32  0.5177  0.0014  0.3788  0.1007  0.0431 0.00000  2.891  5.586 28.793 26.131  0.0000  0.0000  0.0000
 1997 218    14    13     35  0.4442  0.0014  0.2846  0.0993  0.0367 0.00000  2.884  5.547 26.873 24.388  0.0000  0.0000  0.0000
 1997 219    15    14     39  0.7055  0.0000  0.4776  0.1268  0.0560 0.00677  3.208  5.828 28.791 26.129  0.0000  0.0000  0.0000
 1997 220    16    15     46  0.9620  0.0000  0.5590  0.1510  0.0691 0.11558  7.452  8.826 28.900 25.599  0.0000  0.0000  0.0000
 1997 221    17    16     52  0.9512  0.0041  0.6368  0.1767  0.0799 0.00000  6.941  8.088 30.044 27.063  0.0000  0.0000  0.0000
 1997 222    18    17     59  1.2035  0.0000  0.7893  0.2164  0.0923 0.01563  7.055  7.836 28.869 26.385  0.0000  0.0000  0.0000
 1997 223    19    18     68  1.3454  0.0050  0.9249  0.2577  0.1054 0.00000  6.651  7.268 29.458 26.513  0.0000  0.0000  0.0000
 1997 224    20    19     77  1.3683  0.0054  0.9159  0.2822  0.1087 0.00000  6.188  6.959 28.770 26.073  0.0000  0.0000  0.0000
 1997 225    21    20     86  1.5831  0.0060  1.0363  0.3309  0.1318 0.00000  5.776  6.704 29.382 26.934  0.0000  0.0000  0.0000
 1997 226    22    21     97  1.7811  0.0064  1.1239  0.3813  0.1531 0.00000  5.415  6.497 30.203 27.365  0.0000  0.0000  0.0000
 1997 227    23    22    105  1.4517  0.0068  0.8663  0.3238  0.1232 0.00000  5.160  6.345 26.751 25.332  0.0000  0.0000  0.0000
 1997 228    24    23    119  2.2742  0.0069  1.5053  0.4672  0.1948 0.00000  4.863  6.205 31.921 27.381  0.0000  0.0000  0.0000
 1997 229    25    24    132  2.2550  0.0081  1.3470  0.5021  0.1937 0.00000  4.627  6.089 29.362 26.879  0.0000  0.0000  0.0000
 1997 230    26    25    150  2.8442  0.0086  1.8673  0.5823  0.2538 0.00255  4.415  6.032 32.128 28.050  0.0000  0.0000  0.0000
 1997 231    27    26    170  3.2180  0.0092  2.0896  0.6799  0.2462 0.00904  4.266  6.065 29.034 25.843  0.0000  0.0000  0.0000
 1997 232    28    27    191  3.5421  0.0106  2.1959  0.7711  0.2733 0.01698  4.169  6.164 28.359 25.877  0.0000  0.0000  0.0000
 1997 233    29    28    217  4.3921  0.0125  2.7483  0.9019  0.3914 0.02973  4.145  6.350 31.917 28.478  0.0000  0.0000  0.0000
 1997 234    30    29    240  4.1455  0.0142  2.3678  0.9167  0.3930 0.03627  4.120  6.531 31.866 28.321  0.0000  0.0000  0.0000
 1997 235    31    30    256  2.9341  0.0158  1.6850  0.6236  0.3190 0.03178  4.112  6.646 30.865 27.320  0.0000  0.0000  0.0000
 1997 236    32    31    285  4.9196  0.0168  2.9873  1.0515  0.4138 0.06313  4.154  6.919 29.945 26.578  0.0000  0.0000  0.0000
 1997 237    33    32    321  5.9739  0.0199  3.7446  1.2223  0.5174 0.08840  4.238  7.261 30.860 27.529  0.0000  0.0000  0.0000
 1997 238    34    33    354  5.8961  0.0226  3.3545  1.3009  0.5084 0.10064  4.312  7.565 29.975 26.679  0.0000  0.0000  0.0000
 1997 239    35    34    394  6.7983  0.0267  4.1318  1.4119  0.6113 0.12954  4.411  7.899 30.940 27.574  0.0000  0.0000  0.0000
 1997 240    36    35    425  5.6049  0.0286  3.1728  1.2071  0.5308 0.11785  4.484  8.143 30.528 26.277  0.0000  0.0000  0.0000
 1997 241    37    36    478  8.4207  0.0339  5.3318  1.6743  0.7035 0.19690  4.640  8.572 29.769 26.687  0.0000  0.0000  0.0000
 1997 242    38    37    530  8.9264  0.0404  5.3114  1.8765  0.7539 0.22458  4.774  8.942 28.913 26.575  0.0000  0.0000  0.0000
 1997 243    39    38    587  9.8655  0.0462  5.7563  2.0824  0.8443 0.26728  4.926  9.338 29.632 26.692  0.0000  0.0000  0.0000
 1997 244    40    39    645 10.3786  0.0540  5.8369  2.2110  0.9813 0.29844  5.060  9.689 31.350 27.809  0.0000  0.0000  0.0000
 1997 245    41    40    707 11.0005  0.0625  6.3340  2.3111  0.9848 0.33919  5.201 10.034 29.344 26.865  0.0000  0.0000  0.0000
 1997 246    42    41    759  9.3875  0.0695  5.3216  1.9664  0.8671 0.30479  5.305 10.285 27.674 25.691  0.0000  0.0000  0.0000
 1997 247    43    42    816 10.1800  0.0788  5.7331  2.1070  0.9998 0.34568  5.416 10.546 28.924 26.623  0.0000  0.0000  0.0000
 1997 248    44    43    897 13.5204  0.0856  8.2638  2.6368  1.2711 0.48442  5.585 10.917 30.843 27.303  0.0000  0.0000  0.0000
 1997 249    45    44    966 12.6340  0.0957  7.0366  2.6184  1.2153 0.47193  5.726 11.220 29.924 26.562  0.0000  0.0000  0.0000
 1997 250    46    45   1048 14.4680  0.1091  8.3721  2.9304  1.3050 0.56885  5.894 11.560 29.088 26.080  0.0000  0.0000  0.0000
 1997 251    47    46   1145 16.5694  0.1288  9.9274  3.2290  1.5606 0.67589  6.066 11.921 30.087 27.079  4.4998 51.0000 12.3760
 1997 252    48    47   1218 13.5227  0.1494  7.4739  2.7036  1.4900 0.55021  6.172 12.138 30.169 27.338  4.5229 51.0000 12.2321
 1997 253    49    48   1305 16.0402  0.1606  8.8536  3.2887  1.5630 0.68075  6.296 12.414 29.167 26.337  4.4605 51.0000 12.6218
 1997 254    50    49   1394 16.3338  0.1778  9.0440  3.3596  1.5477 0.70282  6.415 12.667 27.916 25.617  4.3983 51.0000 13.0108
 1997 255    51    50   1503 19.1733  0.2004 10.9881  3.8171  1.8947 0.85304  6.556 12.967 29.997 26.814  4.4271 51.0000 12.8304
 1997 256    52    51   1613 20.2463  0.2309 11.1621  4.0414  2.2678 0.92058  6.691 13.252 31.912 28.553  4.5034 51.0000 12.3536
 1997 257    53    52   1715 18.8910  0.2400 10.3570  3.8948  1.8216 0.86487  6.805 13.484 28.162 25.333  4.4448 51.0000 12.7200
 1997 258    54    53   1829 21.3361  0.2780 11.5988  4.3226  2.3294 1.01137  6.931 13.741 30.909 27.550  4.4723 51.0000 12.5482
 1997 259    55    54   1943 21.4623  0.2899 11.5735  4.4547  2.1465 1.02608  7.049 13.980 29.323 25.788  4.4440 51.0000 12.7252
 1997 260    56    55   2061 22.4813  0.3280 12.0582  4.6406  2.3826 1.09327  7.164 14.209 29.905 26.547  4.4431 51.0000 12.7308
 1997 261    57    56   2133 14.5404  0.3422  8.0458  2.9441  1.7160 0.56448  7.187 14.217 25.744 24.153  4.3853 51.0000 13.0916
 1997 262    58    57   2240 21.2396  0.3774 11.1702  4.4665  2.3540 0.97142  7.266 14.365 28.738 26.088  4.3858 51.0000 13.0884
 1997 263    59    58   2339 20.4156  0.4160 10.5681  4.2352  2.6361 0.90157  7.324 14.463 30.569 27.565  4.4154 51.0000 12.9040
 1997 264    60    59   2463 24.7086  0.4440 12.8499  5.0945  3.1353 1.19448  7.425 14.655 31.899 28.542  4.4559 51.0000 12.6507
 1997 265    61    60   2579 24.0848  0.4810 12.1491  5.0384  3.2395 1.12954  7.501 14.795 31.981 28.802  4.4921 51.0000 12.4243
 1997 266    62    61   2635 13.5595  0.4663  7.0382  2.9546  1.9899 0.30848  7.462 14.662 26.817 24.345  4.4440 51.0000 12.7252
 1997 267    63    62   2750 24.2793  0.5053 12.0672  5.3214  3.0061 1.06688  7.526 14.778 30.376 26.987  4.4505 51.0000 12.6845
 1997 268    64    63   2815 15.8740  0.5138  8.0501  3.5649  2.2630 0.37516  7.492 14.655 27.315 24.844  4.4215 51.0000 12.8657
 1997 269    65    64   2915 22.5704  0.5375 10.8948  5.0315  3.1278 0.86542  7.523 14.697 31.500 27.335  4.4351 51.0000 12.7808
 1997 270    66    65   3033 26.1382  0.5840 12.5593  5.6893  3.8159 1.15517  7.590 14.820 32.803 29.274  4.4714 51.0000 12.5539
 1997 271    67    66   3150 25.7839  0.5673 12.3932  5.9278  3.1539 1.05074  7.643 14.914 30.377 25.967  4.4596 51.0000 12.6274
 1997 272    68    67   3262 26.0121  0.6440 12.1446  5.8684  3.8642 1.04807  7.681 14.972 32.300 28.772  4.4851 51.0000 12.4680
 1997 273    69    68   3367 25.0956  0.6645 11.7297  5.7993  3.6509 0.91349  7.699 14.981 31.298 27.771  4.4954 51.0000 12.4040
 1997 274    70    69   3474 25.8248  0.7041 11.8843  5.9035  4.0728 0.97642  7.720 14.998 32.051 29.054  4.5183 51.0000 12.2604
 1997 275    71    70   3585 27.0209  0.7275 12.3293  6.1912  4.2922 1.06217  7.751 15.037 32.465 29.292  4.5406 51.0000 12.1214
 1997 276    72    71   3675 22.6588  0.6718 10.6832  5.6502  2.8241 0.63962  7.739 14.969 26.634 23.814  4.4978 51.0000 12.3888
 1997 277    73    72   3774 24.8209  0.7071 11.4960  6.0794  3.4408 0.70792  7.732 14.913 29.948 25.720  4.4833 51.0000 12.4792
 1997 278    74    73   3827 15.6881  0.0000  4.8565  3.8001  3.0054 2.07908  8.254 16.003 29.532 25.480  4.5827 50.7650 12.0933
 1997 279    75    74   3927 26.1605  0.8086 11.7172  6.4635  3.8871 0.73974  8.227 15.901 30.995 26.874  4.5736 50.7851 12.1298
 1997 280    76    75   4026 25.6427  0.8055 11.5732  6.4914  3.5334 0.76242  8.210 15.816 28.968 25.411  4.5511 50.8036 12.2522
 1997 281    77    76   4071 15.3778  0.0000  4.8727  3.6544  3.5830 1.49638  8.600 16.585 30.541 27.548  4.6235 50.6680 11.9351
 1997 282    78    77   4156 24.3437  0.9399 10.6692  6.2160  4.3310 0.72405  8.559 16.435 30.866 28.542  4.6716 50.6005 11.7021
 1997 283    79    78   4242 24.6451  0.9465 10.6453  6.3109  4.4932 0.74134  8.516 16.291 31.658 28.913  4.7138 50.5473 11.4914
 1997 284    80    79   4329 24.9669  0.9569 10.6340  6.5036  4.5123 0.76230  8.473 16.153 31.491 28.817  4.7518 50.4981 11.3033
 1997 285    81    80   4407 23.7375  0.9543  9.6032  6.2265  4.4296 0.74671  8.424 16.013 32.028 28.615  4.7465 50.5316 11.3026
 1997 286    82    81   4490 24.7820  0.9545 10.0658  6.5413  4.4324 0.79822  8.382 15.892 32.005 28.347  4.7398 50.5619 11.3142
 1997 287    83    82   4551 19.3933  0.0000  6.2186  4.9747  3.9979 1.56574  8.760 16.642 30.652 27.910  4.7871 50.4720 11.1089
 1997 288    84    83   4640 24.3507  0.0000  7.5761  6.4273  3.8312 2.87345  9.410 18.001 29.688 26.207  4.8380 50.3500 10.9122
 1997 289    85    84   4723 24.5958  0.9633  9.9837  6.6911  4.1986 0.83789  9.380 17.887 31.296 27.429  4.8517 50.3237 10.8530
 1997 290    86    85   4780 18.2867  0.0000  5.5360  4.6506  3.9930 1.63227  9.768 18.652 31.336 27.963  4.8846 50.2628 10.7085
 1997 291    87    86   4836 18.4462  0.0000  5.9475  4.6692  4.3053 1.05728 10.024 19.116 33.283 28.997  4.9134 50.2191 10.5722
 1997 292    88    87   4900 18.5269  0.0000  5.5686  4.7692  3.4287 2.16264 10.512 20.096 28.837 25.676  4.9413 50.1453 10.4714
 1997 293    89    88   4955 17.9020  0.0000  5.4484  4.6610  3.9252 1.36258 10.838 20.713 31.262 27.750  4.9663 50.0975 10.3629
 1997 294    90    89   5005 17.1238  0.0000  5.4733  4.4864  3.9341 0.84463 11.052 21.078 31.590 27.939  4.9882 50.0573 10.2667
 1997 295    91    90   5073 21.6900  1.4065  8.7094  5.9180  4.2491 0.79394 10.909 20.749 31.415 28.220  4.9945 50.0517 10.2324
 1997 296    92    91   5143 21.7923  1.3642  8.8751  6.0134  3.9890 0.81653 10.771 20.440 31.047 27.116  4.9965 50.0453 10.2265
 1997 297    93    92   5208 21.1321  1.3471  8.2409  5.7193  4.3376 0.79781 10.637 20.146 32.185 28.536  5.0025 50.0420 10.1926
 1997 298    94    93   5275 20.6273  0.0000  6.8776  5.5708  4.1094 0.89450 10.835 20.497 31.904 27.694  5.0220 50.0038 10.1087
 1997 299    95    94   5342 20.8275  1.4012  8.1823  5.7056  4.2722 0.82082 10.685 20.179 32.727 28.167  5.0276 49.9976 10.0800
 1997 300    96    95   5403 19.9606  1.3703  7.7966  5.5311  3.9118 0.78787 10.542 19.879 30.697 27.085  5.0271 49.9960 10.0844
 1997 301    97    96   5467 20.2229  1.4312  8.0070  5.3943  4.2334 0.87586 10.394 19.572 31.423 28.268  5.0311 49.9929 10.0627
 1997 302    98    97   5533 19.9416  1.4219  7.8898  5.1994  4.2607 1.00601 10.266 19.309 31.781 28.346  5.0342 49.9915 10.0447
 1997 303    99    98   5597 19.5826  1.4048  7.5926  5.0145  4.0990 1.03625 10.141 19.059 31.569 27.714  5.0237 50.0144 10.0875
 1997 304   100    99   5654 17.7814  1.4089  6.9668  4.5190  3.9079 0.92316 10.004 18.785 30.908 27.334  5.0134 50.0349 10.1312
 1997 305   101   100   5753 19.4139  0.0000  3.2693  2.1484  3.9355 7.60677 11.424 21.864 30.170 27.122  4.9836 50.0950 10.2574

*DSSAT Cropping System Model Ver. 4.5.1.023 -Stub         NOV 06, 2014; 23:59:41
                                                                                
*RUN   6        : 97 DATE3 F-MIX            CRGRO045 GHNY9701    6              
 MODEL          : CRGRO045 - Peanut                                             
 EXPERIMENT     : GHNY9701 PN 1997 VARIETY X PLANTING DATE EXPERIMENT           
 DATA PATH      :                                                               
 TREATMENT  6   : 97 DATE3 F-MIX            CRGRO045                            
  
@YEAR DOY   DAS   DAP   TWAD    PHAD    CMAD    CGRD    GRAD    MRAD    CHAD   CL%D   CS%D   TGNN   TGAV    GN%D    GL%D    GC%D
 1997 205     1     0      0  0.0000  0.0000  0.0000  0.0000  0.0000 0.00000  0.000  0.000 30.200 26.861  0.0000  0.0000  0.0000
 1997 206     2     1      0  0.0000  0.0000  0.0000  0.0000  0.0000 0.00000  0.000  0.000 28.643 25.624  0.0000  0.0000  0.0000
 1997 207     3     2      0  0.0000  0.0000  0.0000  0.0000  0.0000 0.00000  0.000  0.000 30.562 27.365  0.0000  0.0000  0.0000
 1997 208     4     3      0  0.0000  0.0000  0.0000  0.0000  0.0000 0.00000  0.000  0.000 31.061 27.865  0.0000  0.0000  0.0000
 1997 209     5     4      0  0.0000  0.0000  0.0000  0.0000  0.0000 0.00000  0.000  0.000 30.560 27.364  0.0000  0.0000  0.0000
 1997 210     6     5      0  0.0000  0.0000  0.0000  0.0000  0.0000 0.00000  0.000  0.000 29.800 27.136  0.0000  0.0000  0.0000
 1997 211     7     6      0  0.0000  0.0000  0.0000  0.0000  0.0000 0.00000  0.000  0.000 28.299 25.635  0.0000  0.0000  0.0000
 1997 212     8     7      0  0.0000  0.0000  0.0000  0.0000  0.0000 0.00000  0.000  0.000 26.118 24.165  0.0000  0.0000  0.0000
 1997 213     9     8     25  0.0000  0.0013  0.0014  0.0002  0.0000 0.00000  2.955  5.908 26.798 25.023  0.0000  0.0000  0.0000
 1997 214    10     9     28  0.4246  0.0013  0.3209  0.0732  0.0374 0.00000  2.935  5.834 29.651 26.669  0.0000  0.0000  0.0000
 1997 215    11    10     31  0.4368  0.0014  0.3190  0.0759  0.0431 0.00000  2.909  5.771 31.617 27.676  0.0000  0.0000  0.0000
 1997 216    12    11     33  0.3855  0.0016  0.2778  0.0744  0.0393 0.00000  2.900  5.695 28.648 26.766  0.0000  0.0000  0.0000
 1997 217    13    12     36  0.5173  0.0016  0.3727  0.1023  0.0458 0.00000  2.895  5.636 28.793 26.131  0.0000  0.0000  0.0000
 1997 218    14    13     39  0.4382  0.0016  0.2922  0.0936  0.0388 0.00000  2.887  5.583 26.873 24.388  0.0000  0.0000  0.0000
 1997 219    15    14     44  0.7189  0.0018  0.5192  0.1347  0.0593 0.00000  2.880  5.584 28.791 26.129  0.0000  0.0000  0.0000
 1997 220    16    15     50  0.9972  0.0000  0.6669  0.1686  0.0735 0.02531  3.807  6.253 28.900 25.599  0.0000  0.0000  0.0000
 1997 221    17    16     57  0.9744  0.0029  0.6785  0.1860  0.0842 0.00000  3.698  6.123 30.044 27.063  0.0000  0.0000  0.0000
 1997 222    18    17     65  1.2424  0.0031  0.8692  0.2313  0.0975 0.00000  3.603  6.019 28.869 26.385  0.0000  0.0000  0.0000
 1997 223    19    18     74  1.3925  0.0035  0.9460  0.2662  0.1114 0.00000  3.525  5.942 29.458 26.513  0.0000  0.0000  0.0000
 1997 224    20    19     82  1.4076  0.0040  0.8806  0.2863  0.1142 0.00000  3.460  5.879 28.770 26.073  0.0000  0.0000  0.0000
 1997 225    21    20     92  1.5447  0.0046  1.0326  0.3130  0.1334 0.00000  3.378  5.814 29.382 26.934  0.0000  0.0000  0.0000
 1997 226    22    21    102  1.7443  0.0050  1.1312  0.3620  0.1548 0.00000  3.307  5.759 30.203 27.365  0.0000  0.0000  0.0000
 1997 227    23    22    110  1.4033  0.0054  0.8428  0.3084  0.1241 0.00000  3.251  5.704 26.751 25.332  0.0000  0.0000  0.0000
 1997 228    24    23    124  2.2318  0.0056  1.4875  0.4525  0.1960 0.00000  3.195  5.676 31.921 27.381  0.0000  0.0000  0.0000
 1997 229    25    24    137  2.2096  0.0067  1.3316  0.4860  0.1945 0.00000  3.147  5.640 29.362 26.879  0.0000  0.0000  0.0000
 1997 230    26    25    154  2.7942  0.0072  1.8446  0.5676  0.2543 0.00000  3.103  5.620 32.128 28.050  0.0000  0.0000  0.0000
 1997 231    27    26    174  3.1884  0.0078  2.1022  0.6674  0.2474 0.00000  3.066  5.606 29.034 25.843  0.0000  0.0000  0.0000
 1997 232    28    27    195  3.5236  0.0090  2.2283  0.7622  0.2750 0.00000  3.032  5.591 28.359 25.877  0.0000  0.0000  0.0000
 1997 233    29    28    222  4.3750  0.0106  2.8065  0.9011  0.3936 0.00264  3.013  5.598 31.917 28.478  0.0000  0.0000  0.0000
 1997 234    30    29    245  4.1776  0.0120  2.4115  0.9282  0.3981 0.01011  3.021  5.660 31.866 28.321  0.0000  0.0000  0.0000
 1997 235    31    30    261  2.9120  0.0133  1.6900  0.6207  0.3210 0.01238  3.033  5.706 30.865 27.320  0.0000  0.0000  0.0000
 1997 236    32    31    290  4.9884  0.0141  3.1114  1.0597  0.4201 0.03021  3.095  5.878 29.945 26.578  0.0000  0.0000  0.0000
 1997 237    33    32    328  6.0914  0.0166  3.8941  1.2491  0.5275 0.04813  3.184  6.107 30.860 27.529  0.0000  0.0000  0.0000
 1997 238    34    33    362  6.0480  0.0190  3.5008  1.3410  0.5204 0.05871  3.272  6.328 29.975 26.679  0.0000  0.0000  0.0000
 1997 239    35    34    403  6.9979  0.0224  4.3032  1.4671  0.6273 0.08060  3.381  6.585 30.940 27.574  0.0000  0.0000  0.0000
 1997 240    36    35    435  5.7313  0.0240  3.2826  1.2464  0.5427 0.07624  3.461  6.775 30.528 26.277  0.0000  0.0000  0.0000
 1997 241    37    36    489  8.6940  0.0285  5.5165  1.7607  0.7236 0.13331  3.609  7.114 29.769 26.687  0.0000  0.0000  0.0000
 1997 242    38    37    542  9.2276  0.0340  5.5099  1.9749  0.7760 0.15761  3.747  7.425 28.913 26.575  0.0000  0.0000  0.0000
 1997 243    39    38    601 10.2122  0.0390  5.9824  2.1885  0.8698 0.19549  3.898  7.768 29.632 26.692  0.0000  0.0000  0.0000
 1997 244    40    39    661 10.7506  0.0458  6.1379  2.3148  1.0115 0.22485  4.038  8.080 31.350 27.809  0.0000  0.0000  0.0000
 1997 245    41    40    727 11.4542  0.0533  6.7213  2.4288  1.0186 0.26365  4.183  8.393 29.344 26.865  0.0000  0.0000  0.0000
 1997 246    42    41    781  9.7808  0.0596  5.5815  2.0915  0.8971 0.24603  4.291  8.628 27.674 25.691  0.0000  0.0000  0.0000
 1997 247    43    42    840 10.6666  0.0680  6.0402  2.2592  1.0380 0.28782  4.407  8.879 28.924 26.623  0.0000  0.0000  0.0000
 1997 248    44    43    928 14.3098  0.0744  8.9872  2.8031  1.3294 0.41260  4.571  9.231 30.843 27.303  0.0000  0.0000  0.0000
 1997 249    45    44   1003 13.4639  0.0839  7.5411  2.8587  1.2772 0.40835  4.703  9.518 29.924 26.562  0.0000  0.0000  0.0000
 1997 250    46    45   1093 15.5762  0.0936  9.3358  3.1672  1.3818 0.50134  4.871  9.845 29.088 26.080  0.0000  0.0000  0.0000
 1997 251    47    46   1199 17.8757  0.1096 10.8422  3.5518  1.6591 0.60458  5.046 10.194 30.087 27.079  0.0000  0.0000  0.0000
 1997 252    48    47   1277 14.6357  0.1262  8.1211  2.9902  1.5855 0.51777  5.166 10.426 30.169 27.338  0.0000  0.0000  0.0000
 1997 253    49    48   1373 17.5258  0.1343  9.7372  3.6543  1.6745 0.65381  5.311 10.718 29.167 26.337  0.0000  0.0000  0.0000
 1997 254    50    49   1472 17.9332  0.1477 10.0088  3.7270  1.6635 0.70195  5.447 10.998 27.916 25.617  0.0000  0.0000  0.0000
 1997 255    51    50   1597 21.2002  0.1705 12.7148  4.1254  2.0496 0.86197  5.604 11.321 29.997 26.814  4.4699 51.0000 12.5629
 1997 256    52    51   1723 22.4466  0.1995 12.6660  4.4467  2.4638 0.94008  5.748 11.625 31.912 28.553  4.5652 51.0000 11.9674
 1997 257    53    52   1839 21.0432  0.2082 11.6942  4.3184  1.9855 0.92287  5.870 11.885 28.162 25.333  4.4066 51.0000 12.9587
 1997 258    54    53   1972 23.8867  0.2454 13.3751  4.7536  2.5528 1.07192  6.003 12.162 30.909 27.550  4.4754 51.0000 12.5288
 1997 259    55    54   2106 24.1520  0.2571 13.3528  4.9176  2.3631 1.12230  6.129 12.427 29.323 25.788  4.4260 51.0000 12.8374
 1997 260    56    55   2245 25.3854  0.2953 13.9918  5.1177  2.6339 1.20771  6.251 12.679 29.905 26.547  4.4310 51.0000 12.8062
 1997 261    57    56   2330 16.2045  0.3097  9.1928  3.1022  1.8847 0.75650  6.306 12.762 25.744 24.153  4.3433 51.0000 13.3541
 1997 262    58    57   2459 24.0943  0.3482 13.1367  4.8342  2.6151 1.18385  6.405 12.961 28.738 26.088  4.3561 51.0000 13.2741
 1997 263    59    58   2580 23.1017  0.3903 12.4498  4.5055  2.9312 1.14300  6.488 13.119 30.569 27.565  4.4056 51.0000 12.9650
 1997 264    60    59   2731 28.3389  0.4226 15.3605  5.5286  3.5205 1.46405  6.605 13.351 31.899 28.542  4.4636 51.0000 12.6022
 1997 265    61    60   2874 27.5970  0.4641 14.5624  5.4073  3.6440 1.44167  6.702 13.543 31.981 28.802  4.5115 51.0000 12.3031
 1997 266    62    61   2948 15.2391  0.4504  8.5991  2.7907  2.2228 0.70764  6.724 13.543 26.817 24.345  4.4423 51.0000 12.7354
 1997 267    63    62   3094 28.1339  0.5016 14.8858  5.6292  3.4135 1.51292  6.822 13.737 30.376 26.987  4.4513 51.0000 12.6791
 1997 268    64    63   3181 18.0696  0.5157  9.9602  3.4246  2.5554 0.87330  6.853 13.759 27.315 24.844  4.4131 51.0000 12.9183
 1997 269    65    64   3313 26.2072  0.5528 13.7273  5.1566  3.5722 1.40932  6.932 13.904 31.500 27.335  4.4319 51.0000 12.8008
 1997 270    66    65   3467 30.7367  0.6153 15.8375  6.0010  4.3988 1.73009  7.032 14.099 32.803 29.274  4.4779 51.0000 12.5129
 1997 271    67    66   3624 30.6005  0.6006 16.0468  6.1740  3.6604 1.75709  7.135 14.299 30.377 25.967  4.4624 51.0000 12.6101
 1997 272    68    67   3776 30.7455  0.7035 15.7365  6.0238  4.4941 1.76369  7.219 14.456 32.300 28.772  4.4935 51.0000 12.4156
 1997 273    69    68   3921 29.6950  0.7385 15.3006  5.8583  4.2617 1.70301  7.294 14.586 31.298 27.771  4.5049 51.0000 12.3442
 1997 274    70    69   4068 30.6938  0.8012 15.5379  5.9851  4.7794 1.78883  7.365 14.711 32.051 29.054  4.5316 51.0000 12.1772
 1997 275    71    70   4223 32.4132  0.8437 16.2812  6.3492  5.0730 1.93741  7.443 14.852 32.465 29.292  4.5571 51.0000 12.0183
 1997 276    72    71   4355 27.2189  0.7803 14.4235  5.5626  3.3487 1.53691  7.499 14.933 26.634 23.814  4.5035 51.0000 12.3532
 1997 277    73    72   4499 29.9897  0.8447 15.4495  6.0863  4.1051 1.74991  7.563 15.036 29.948 25.720  4.4855 51.0000 12.4659
 1997 278    74    73   4574 18.4037  0.8832  9.6608  3.5536  3.5688 0.74031  7.538 14.932 29.532 25.480  4.4670 51.0000 12.5809
 1997 279    75    74   4725 32.1880  0.9328 16.1034  6.5488  4.6939 1.91442  7.604 15.047 30.995 26.874  4.4680 51.0000 12.5748
 1997 280    76    75   4876 31.8818  0.9526 16.2080  6.5891  4.2996 1.86410  7.667 15.149 28.968 25.411  4.4521 51.0000 12.6741
 1997 281    77    76   4940 18.2666  1.0677  9.1321  3.4460  4.3204 0.64195  7.616 14.989 30.541 27.548  4.4615 51.0000 12.6156
 1997 282    78    77   5071 30.2685  1.0990 14.7143  6.0950  5.3259 1.69954  7.648 15.027 30.866 28.542  4.4794 51.0000 12.5039
 1997 283    79    78   5204 30.9530  1.1329 14.9093  6.2051  5.6036 1.77717  7.684 15.074 31.658 28.913  4.4984 51.0000 12.3852
 1997 284    80    79   5342 31.7868  1.1733 15.3035  6.4123  5.7149 1.85609  7.724 15.129 31.491 28.817  4.5145 51.0000 12.2843
 1997 285    81    80   5468 30.3117  1.1974 14.4088  6.1640  5.6835 1.68402  7.746 15.146 32.028 28.615  4.5270 51.0000 12.2061
 1997 286    82    81   5605 32.1606  1.2231 15.3138  6.5958  5.7941 1.87271  7.782 15.195 32.005 28.347  4.5359 51.0000 12.1505
 1997 287    83    82   5694 24.5950  1.2808 11.6655  5.1068  5.2760 1.02894  7.746 15.077 30.652 27.910  4.5404 51.0000 12.1227
 1997 288    84    83   5834 32.6146  1.2333 15.6443  7.0207  5.1853 1.84516  7.782 15.127 29.688 26.207  4.5297 51.0000 12.1894
 1997 289    85    84   5975 33.6262  1.2943 15.7468  7.1608  5.7973 1.93140  7.817 15.177 31.296 27.429  4.5304 51.0000 12.1851
 1997 290    86    85   6053 23.9336  1.3617 10.9092  5.1802  5.5406 0.77781  7.754 15.003 31.336 27.963  4.5353 51.0000 12.1544
 1997 291    87    86   6132 24.3899  1.3511 10.8350  5.1759  6.0482 0.85513  7.698 14.849 33.283 28.997  4.5470 51.0000 12.0810
 1997 292    88    87   6219 25.1742  1.3145 11.6508  5.8061  4.8954 0.80073  7.645 14.697 28.837 25.676  4.5324 51.0000 12.1723
 1997 293    89    88   6296 24.3371  1.3690 10.7088  5.4734  5.6514 0.74440  7.580 14.523 31.262 27.750  4.5352 51.0000 12.1550
 1997 294    90    89   6366 23.4584  1.3696 10.1313  5.2933  5.7094 0.72999  7.513 14.348 31.590 27.939  4.5390 51.0000 12.1313
 1997 295    91    90   6484 31.6837  1.3866 13.7880  7.1304  6.2810 1.47150  7.505 14.316 31.415 28.220  4.5443 51.0000 12.0979
 1997 296    92    91   6612 32.8671  1.3664 14.6716  7.3663  5.9956 1.73408  7.525 14.344 31.047 27.116  4.5421 51.0000 12.1122
 1997 297    93    92   6727 31.5036  1.4356 13.6172  6.9926  6.5494 1.55012  7.519 14.321 32.185 28.536  4.5485 51.0000 12.0718
 1997 298    94    93   6840 31.0270  1.4270 13.4227  7.0165  6.2620 1.46941  7.509 14.286 31.904 27.694  4.5496 51.0000 12.0651
 1997 299    95    94   6958 32.1707  1.4447 13.7275  7.2085  6.5968 1.64245  7.510 14.282 32.727 28.167  4.5532 51.0000 12.0427
 1997 300    96    95   7069 30.8865  1.4821 13.4051  7.1200  6.0809 1.43774  7.492 14.232 30.697 27.085  4.5505 51.0000 12.0592
 1997 301    97    96   7182 31.9079  1.5393 13.5223  7.2720  6.6559 1.52742  7.475 14.188 31.423 28.268  4.5545 51.0000 12.0345
 1997 302    98    97   7293 31.6342  1.5534 13.3052  7.2078  6.7380 1.50681  7.455 14.139 31.781 28.346  4.5585 51.0000 12.0094
 1997 303    99    98   7403 31.2477  1.5482 13.2200  7.1693  6.5149 1.49339  7.436 14.090 31.569 27.714  4.5591 51.0000 12.0058
 1997 304   100    99   7489 27.3965  1.5680 11.5390  6.4333  6.1784 0.98172  7.372 13.941 30.908 27.334  4.5578 51.0000 12.0140
 1997 305   101   100   7599 31.2555  1.5797 13.1924  7.3114  6.2965 1.47200  7.348 13.885 30.170 27.122  4.5555 51.0000 12.0280
 1997 306   102   101   7679 26.8349  1.6111 10.9377  6.1256  6.8049 0.97534  7.279 13.727 32.240 28.737  4.5605 51.0000 11.9969
 1997 307   103   102   7786 31.3240  1.6177 13.0287  7.2324  6.6181 1.55191  7.257 13.682 30.379 27.752  4.5611 51.0000 11.9933
 1997 308   104   103   7890 31.0067  1.6243 12.5026  6.9898  7.2340 1.56375  7.235 13.639 32.649 28.972  4.5665 51.0000 11.9597
 1997 309   105   104   7984 29.6314  1.6518 11.8122  6.7089  7.1889 1.38282  7.201 13.573 32.324 28.998  4.5716 51.0000 11.9275
 1997 310   106   105   7977 10.0846  1.6301  2.9493  1.8394  6.0831 0.00000  7.028 13.214 33.292 28.917  4.5738 51.0000 11.9137
 1997 311   107   106   7965  8.5499  1.5944  2.2398  1.3969  5.8642 0.00000  6.852 12.857 32.879 28.679  4.5751 51.0000 11.9055
 1997 312   108   107   7950  7.8172  1.5879  1.6595  1.0350  6.2476 0.00000  6.670 12.497 33.319 29.995  4.5774 51.0000 11.8913
 1997 313   109   108   7932  6.3101  1.5495  1.0076  0.6284  5.9392 0.00000  6.487 12.141 32.818 29.495  4.5785 51.0000 11.8847
 1997 314   110   109   7886  5.2219  1.4944  0.5253  0.3276  5.7136 0.00000  6.303 11.783 32.998 29.045  4.5789 51.0000 11.8822
 1997 315   111   110   7838  4.6557  1.4338  0.3594  0.2242  5.4019 0.00000  6.123 11.435 32.619 28.317  4.5790 51.0000 11.8814
 1997 316   112   111   7788  4.1425  1.3960  0.0000  0.0000  5.5417 0.00000  5.943 11.091 33.282 28.911  4.5790 51.0000 11.8814
 1997 317   113   112   7738  3.8109  1.3207  0.0104  0.0065  5.1116 0.00000  5.771 10.761 32.678 27.714  4.5790 51.0000 11.8814
 1997 318   114   113   7688  3.3874  1.2832  0.0000  0.0000  5.0175 0.00000  5.602 10.436 32.512 27.618  4.5790 51.0000 11.8814
 1997 319   115   114   7637  3.1156  1.2586  0.0000  0.0000  5.0732 0.00000  5.434 10.113 32.634 27.986  4.5790 51.0000 11.8814
 1997 320   116   115   7588  3.0103  1.1857  0.0000  0.0000  4.9122 0.00000  5.275  9.805 32.988 27.467  4.5790 51.0000 11.8814
 1997 321   117   116   7539  2.8440  1.1574  0.0000  0.0000  4.8609 0.00000  5.117  9.501 32.792 27.482  4.5790 51.0000 11.8814
 1997 322   118   117   7491  2.4539  1.1405  0.0000  0.0000  5.1173 0.00000  4.961  9.199 33.662 28.492  4.5790 51.0000 11.8814
 1997 323   119   118   7444  2.5890  1.0940  0.0000  0.0000  4.4827 0.00000  4.809  8.905 31.181 26.641  4.5790 51.0000 11.8814
 1997 324   120   119   7398  2.0504  1.0656  0.0000  0.0000  4.8152 0.00000  4.659  8.616 32.912 27.848  4.5790 51.0000 11.8814
