*PLANT N OUTPUT FILE

*DSSAT Cropping System Model Ver. 4.5.1.023 -Stub         DEC 04, 2014; 01:35:34
                                                                                
*RUN   1        : 97 DATE1 CHINESE          CRGRO045 GHNY9701    1              
 MODEL          : CRGRO045 - Peanut                                             
 EXPERIMENT     : GHNY9701 PN 1997 VARIETY X PLANTING DATE EXPERIMENT           
 DATA PATH      :                                                               
 TREATMENT  1   : 97 DATE1 CHINESE          CRGRO045                            
  
@YEAR DOY   DAS   DAP    CNAD    GNAD    VNAD    GN%D    VN%D     NFXC    NUPC    LNAD    SNAD    LN%D    SN%D    SHND   RN%D   NFXD   SNN0C   SNN1C
 1997 149     2     0     0.0     0.0     0.0    0.00    0.00      0.0     0.0     0.0     0.0    0.00    0.00     0.0    0.0    0.0    0.00    0.00
 1997 150     3     1     0.0     0.0     0.0    0.00    0.00      0.0     0.0     0.0     0.0    0.00    0.00     0.0    0.0    0.0    0.00    0.00
 1997 151     4     2     0.0     0.0     0.0    0.00    0.00      0.0     0.0     0.0     0.0    0.00    0.00     0.0    0.0    0.0    0.00    0.00
 1997 152     5     3     0.0     0.0     0.0    0.00    0.00      0.0     0.0     0.0     0.0    0.00    0.00     0.0    0.0    0.0    0.00    0.00
 1997 153     6     4     0.0     0.0     0.0    0.00    0.00      0.0     0.0     0.0     0.0    0.00    0.00     0.0    0.0    0.0    0.00    0.00
 1997 154     7     5     0.0     0.0     0.0    0.00    0.00      0.0     0.0     0.0     0.0    0.00    0.00     0.0    0.0    0.0    0.00    0.00
 1997 155     8     6     0.0     0.0     0.0    0.00    0.00      0.0     0.0     0.0     0.0    0.00    0.00     0.0    0.0    0.0    0.00    0.00
 1997 156     9     7     0.0     0.0     0.0    0.00    0.00      0.0     0.0     0.0     0.0    0.00    0.00     0.0    0.0    0.0    0.00    0.00
 1997 157    10     8     0.5     0.0     0.5    0.00    4.84      0.1     0.0     0.5     0.1    5.36    2.56     0.0    2.3    0.0    0.00    0.00
 1997 158    11     9     0.6     0.0     0.6    0.00    4.82      0.1     0.0     0.5     0.1    5.31    2.52     0.0    2.2    0.0    0.00    0.01
 1997 159    12    10     0.7     0.0     0.7    0.00    4.82      0.2     0.0     0.6     0.1    5.29    2.50     0.0    2.2    0.0    0.00    0.01
 1997 160    13    11     0.8     0.0     0.8    0.00    4.71      0.2     0.0     0.7     0.1    5.13    2.44     0.0    2.1    0.1    0.00    0.01
 1997 161    14    12     0.9     0.0     0.9    0.00    4.64      0.3     0.0     0.8     0.1    5.04    2.39     0.0    2.1    0.1    0.00    0.01
 1997 162    15    13     1.0     0.0     1.0    0.00    4.65      0.4     0.0     0.9     0.1    5.04    2.38     0.0    2.1    0.1    0.00    0.02
 1997 163    16    14     1.0     0.0     1.0    0.00    4.52      0.5     0.0     1.0     0.1    4.93    2.26     0.0    2.0    0.1    0.00    0.02
 1997 164    17    15     1.2     0.0     1.2    0.00    4.49      0.7     0.0     1.1     0.1    4.92    2.28     0.0    2.0    0.1    0.01    0.02
 1997 165    18    16     1.3     0.0     1.3    0.00    4.31      0.8     0.0     1.2     0.1    4.78    2.14     0.0    1.9    0.1    0.01    0.02
 1997 166    19    17     1.4     0.0     1.4    0.00    4.18      1.0     0.0     1.3     0.1    4.71    2.11     0.0    1.9    0.2    0.01    0.03
 1997 167    20    18     1.6     0.0     1.6    0.00    4.06      1.2     0.0     1.4     0.2    4.67    2.12     0.0    1.9    0.2    0.01    0.03
 1997 168    21    19     1.7     0.0     1.7    0.00    3.96      1.5     0.0     1.5     0.3    4.65    2.16     0.0    1.9    0.2    0.02    0.03
 1997 169    22    20     1.9     0.0     1.9    0.00    3.85      1.8     0.0     1.6     0.3    4.57    2.11     0.0    1.8    0.3    0.02    0.04
 1997 170    23    21     2.2     0.0     2.2    0.00    3.84      2.1     0.0     1.8     0.4    4.58    2.13     0.0    1.8    0.3    0.02    0.04
 1997 171    24    22     2.5     0.0     2.5    0.00    3.77      2.5     0.0     2.1     0.4    4.54    2.12     0.0    1.8    0.3    0.02    0.05
 1997 172    25    23     2.9     0.0     2.9    0.00    3.74      3.0     0.0     2.3     0.5    4.53    2.12     0.0    1.8    0.4    0.03    0.05
 1997 173    26    24     3.2     0.0     3.2    0.00    3.75      3.4     0.0     2.6     0.6    4.57    2.15     0.0    1.8    0.3    0.03    0.06
 1997 174    27    25     3.6     0.0     3.6    0.00    3.77      3.8     0.0     2.8     0.7    4.62    2.18     0.0    1.8    0.4    0.03    0.06
 1997 175    28    26     4.0     0.0     4.0    0.00    3.75      4.3     0.0     3.2     0.9    4.63    2.20     0.0    1.8    0.5    0.04    0.07
 1997 176    29    27     4.5     0.0     4.5    0.00    3.67      5.0     0.0     3.5     1.0    4.58    2.16     0.0    1.8    0.5    0.04    0.07
 1997 177    30    28     5.1     0.0     5.1    0.00    3.60      5.7     0.0     3.9     1.1    4.53    2.13     0.0    1.8    0.6    0.05    0.08
 1997 178    31    29     5.8     0.0     5.8    0.00    3.57      6.6     0.0     4.4     1.4    4.52    2.12     0.0    1.8    0.8    0.05    0.09
 1997 179    32    30     6.5     0.0     6.5    0.00    3.60      7.5     0.0     4.9     1.6    4.58    2.15     0.0    1.8    0.8    0.06    0.10
 1997 180    33    31     7.3     0.0     7.3    0.00    3.56      8.5     0.0     5.5     1.8    4.55    2.14     0.0    1.8    0.9    0.06    0.11
 1997 181    34    32     8.2     0.0     8.2    0.00    3.58      9.6     0.0     6.1     2.1    4.61    2.16     0.0    1.8    1.1    0.07    0.12
 1997 182    35    33     9.2     0.0     9.2    0.00    3.55     10.9     0.0     6.8     2.4    4.59    2.15     0.0    1.8    1.1    0.08    0.13
 1997 183    36    34    10.1     0.0    10.1    0.00    3.55     11.8     0.0     7.4     2.7    4.62    2.16     0.0    1.8    0.9    0.09    0.14
 1997 184    37    35    11.0     0.0    11.0    0.00    3.56     12.9     0.0     8.1     2.9    4.64    2.17     2.8    1.8    1.1    0.10    0.15
 1997 185    38    36    12.0     0.0    12.0    0.00    3.56     14.0     0.0     8.8     3.3    4.66    2.17     2.8    1.8    1.1    0.11    0.16
 1997 186    39    37    13.2     0.0    13.2    0.00    3.47     15.5     0.0     9.5     3.6    4.59    2.12     2.8    1.8    1.2    0.13    0.18
 1997 187    40    38    14.6     0.0    14.5    0.00    3.44     17.2     0.1    10.5     4.1    4.57    2.11     2.8    1.8    1.5    0.14    0.19
 1997 188    41    39    16.2     0.0    16.1    0.00    3.43     19.0     0.1    11.5     4.6    4.58    2.11     2.8    1.8    1.7    0.16    0.21
 1997 189    42    40    17.8     0.0    17.7    0.00    3.41     21.1     0.2    12.6     5.1    4.57    2.10     2.8    1.8    1.8    0.17    0.22
 1997 190    43    41    19.8     0.0    19.6    0.00    3.40     23.2     0.3    13.9     5.8    4.59    2.10     2.8    1.8    2.1    0.19    0.24
 1997 191    44    42    21.4     0.0    21.2    0.00    3.40     24.9     0.5    14.9     6.3    4.60    2.10     2.8    1.8    1.7    0.21    0.26
 1997 192    45    43    23.2     0.0    22.8    0.00    3.39     26.7     0.7    16.0     6.9    4.61    2.10     2.8    1.8    1.8    0.24    0.28
 1997 193    46    44    25.3     0.0    24.8    0.00    3.36     29.1     0.9    17.3     7.6    4.59    2.09     2.8    1.8    2.2    0.26    0.30
 1997 194    47    45    27.7     0.0    27.0    0.00    3.33     31.7     1.1    18.6     8.3    4.58    2.07     2.8    1.8    2.4    0.32    0.33
 1997 195    48    46    30.1     0.0    29.2    0.00    3.32     34.4     1.2    20.1     9.1    4.59    2.07     2.7    1.8    2.6    0.39    0.36
 1997 196    49    47    31.9     0.0    30.7    4.34    3.30     36.4     1.2    21.0     9.7    4.58    2.06     2.7    1.8    1.9    0.46    0.38
 1997 197    50    48    33.2     0.1    31.7    4.13    3.28     37.8     1.2    21.6    10.0    4.56    2.04     2.7    1.8    1.4    0.49    0.41
 1997 198    51    49    35.7     0.1    33.8    4.27    3.26     40.5     1.2    23.0    10.8    4.56    2.03     2.7    1.8    2.7    0.53    0.43
 1997 199    52    50    38.2     0.2    35.8    4.27    3.24     43.3     1.2    24.2    11.6    4.54    2.02     2.7    1.8    2.7    0.57    0.46
 1997 200    53    51    40.8     0.4    37.9    4.32    3.20     46.3     1.2    25.5    12.4    4.52    2.00     2.7    1.8    2.8    0.62    0.49
 1997 201    54    52    43.0     0.6    39.4    4.28    3.18     48.6     1.3    26.4    12.9    4.50    1.99     2.7    1.8    2.3    0.66    0.52
 1997 202    55    53    44.2     0.9    39.8    4.27    3.14     49.8     1.3    26.7    13.1    4.46    1.96     2.7    1.8    1.2    0.71    0.55
 1997 203    56    54    47.0     1.2    41.9    4.30    3.10     53.1     1.4    28.0    14.0    4.43    1.94     2.6    1.8    3.0    0.76    0.59
 1997 204    57    55    49.9     1.6    43.9    4.35    3.08     56.1     1.5    29.2    14.8    4.42    1.93     2.6    1.8    3.0    0.81    0.62
 1997 205    58    56    52.7     2.0    45.7    4.38    3.07     59.0     1.6    30.2    15.5    4.40    1.92     2.6    1.8    2.9    0.86    0.66
 1997 206    59    57    55.9     2.5    47.9    4.37    3.05     62.3     1.8    31.5    16.4    4.39    1.91     2.6    1.8    3.2    0.92    0.69
 1997 207    60    58    59.1     3.1    50.1    4.40    3.03     65.6     2.0    32.8    17.3    4.38    1.91     2.6    1.7    3.3    0.98    0.73
 1997 208    61    59    62.2     3.8    52.0    4.43    3.01     68.7     2.2    33.9    18.1    4.37    1.90     2.6    1.7    3.1    1.04    0.77
 1997 209    62    60    65.5     4.5    53.9    4.45    2.98     72.0     2.4    35.0    18.9    4.35    1.89     2.5    1.7    3.3    1.10    0.81
 1997 210    63    61    67.7     5.3    54.7    4.46    2.95     74.0     2.6    35.4    19.3    4.32    1.86     2.5    1.7    2.0    1.18    0.86
 1997 211    64    62    69.2     6.2    54.7    4.44    2.91     75.4     2.9    35.4    19.3    4.28    1.84     2.5    1.7    1.3    1.25    0.90
 1997 212    65    63    70.3     7.2    54.2    4.40    2.87     76.2     3.2    35.1    19.1    4.23    1.81     2.5    1.7    0.8    1.33    0.93
 1997 213    66    64    72.1     8.3    54.3    4.38    2.84     78.0     3.3    35.1    19.2    4.20    1.79     2.5    1.6    1.7    1.40    0.97
 1997 214    67    65    75.4     9.5    55.7    4.39    2.83     81.3     3.5    35.8    19.9    4.19    1.78     2.5    1.6    3.3    1.48    1.01
 1997 215    68    66    78.5    10.8    56.9    4.41    2.81     84.4     3.6    36.5    20.4    4.18    1.78     2.4    1.6    3.1    1.56    1.05
 1997 216    69    67    80.3    12.2    56.7    4.42    2.78     86.0     3.9    36.3    20.4    4.14    1.75     2.4    1.6    1.7    1.64    1.10
 1997 217    70    68    82.6    13.7    56.8    4.41    2.75     88.2     4.0    36.3    20.5    4.11    1.74     2.4    1.6    2.1    1.73    1.14
 1997 218    71    69    83.4    15.3    56.2    4.39    2.71     88.8     4.3    35.9    20.3    4.07    1.71     2.4    1.6    0.6    1.81    1.17
 1997 219    72    70    85.4    17.1    56.0    4.39    2.69     90.7     4.5    35.7    20.3    4.03    1.69     2.3    1.5    1.9    1.89    1.21
 1997 220    73    71    88.5    19.0    56.6    4.38    2.67     93.8     4.6    35.9    20.7    4.02    1.68     2.3    1.5    3.1    1.97    1.25
 1997 221    74    72    90.6    21.0    56.4    4.40    2.63     95.8     4.8    35.7    20.6    3.98    1.66     2.3    1.5    2.1    2.06    1.29
 1997 222    75    73    93.6    23.2    56.6    4.40    2.61     98.7     4.9    35.8    20.8    3.95    1.65     2.3    1.5    2.9    2.14    1.33
 1997 223    76    74    96.5    25.5    56.7    4.40    2.58    101.4     5.2    35.7    20.9    3.92    1.63     2.2    1.5    2.7    2.22    1.36
 1997 224    77    75    98.9    27.9    56.6    4.40    2.56    103.8     5.3    35.6    21.0    3.89    1.62     2.2    1.5    2.4    2.30    1.40
 1997 225    78    76   101.5    30.4    56.4    4.41    2.53    106.2     5.5    35.4    21.0    3.86    1.60     2.2    1.4    2.4    2.38    1.44
 1997 226    79    77   103.9    33.0    56.3    4.42    2.50    108.5     5.7    35.2    21.0    3.83    1.58     2.1    1.4    2.2    2.46    1.48
 1997 227    80    78   104.8    35.6    55.0    4.49    2.43    109.2     5.9    34.5    20.5    3.75    1.53     2.1    1.4    0.7    2.54    1.51
 1997 228    81    79   107.5    38.7    54.5    4.53    2.39    111.7     6.1    34.1    20.4    3.70    1.50     2.0    1.4    2.5    2.61    1.55
 1997 229    82    80   109.3    42.2    53.3    4.61    2.32    113.3     6.3    33.4    19.9    3.63    1.45     2.0    1.3    1.6    2.69    1.58
 1997 230    83    81   111.8    45.5    52.7    4.64    2.28    115.6     6.5    33.0    19.7    3.58    1.42     1.9    1.3    2.3    2.76    1.61
 1997 231    84    82   114.4    48.9    52.2    4.66    2.24    118.0     6.8    32.6    19.5    3.53    1.39     1.9    1.3    2.4    2.83    1.64
 1997 232    85    83   117.0    52.9    51.0    4.72    2.17    120.4     6.9    32.0    19.1    3.46    1.34     1.9    1.3    2.4    2.91    1.67
 1997 233    86    84   119.9    56.2    50.7    4.74    2.14    123.1     7.2    31.7    19.0    3.42    1.32     1.8    1.2    2.7    2.98    1.71
 1997 234    87    85   122.1    59.7    49.8    4.79    2.10    125.2     7.4    31.1    18.7    3.36    1.29     1.8    1.2    2.1    3.06    1.74
 1997 235    88    86   122.7    61.7    48.8    4.81    2.05    125.6     7.5    30.5    18.3    3.31    1.25     1.7    1.2    0.4    3.13    1.77
 1997 236    89    87   125.0    65.3    47.8    4.85    2.00    127.7     7.7    29.9    17.9    3.25    1.22     1.7    1.2    2.1    3.19    1.79
 1997 237    90    88   127.6    68.6    47.4    4.86    1.97    130.1     8.0    29.7    17.8    3.21    1.20     1.7    1.2    2.4    3.25    1.82
 1997 238    91    89   129.9    72.0    46.6    4.89    1.93    132.3     8.1    29.1    17.4    3.16    1.17     1.6    1.1    2.1    3.30    1.85
 1997 239    92    90   132.3    75.4    45.8    4.92    1.89    134.4     8.4    28.7    17.2    3.11    1.14     1.6    1.1    2.1    3.35    1.87
 1997 240    93    91   133.7    77.8    45.0    4.93    1.85    135.6     8.6    28.2    16.9    3.06    1.12     1.5    1.1    1.2    3.42    1.90
 1997 241    94    92   136.3    80.7    44.9    4.94    1.84    138.0     8.9    28.0    16.9    3.04    1.11     1.5    1.1    2.4    3.46    1.92
 1997 242    95    93   138.9    83.4    44.7    4.94    1.82    140.5     9.0    27.8    16.9    3.02    1.10     1.5    1.1    2.5    3.53    1.95
 1997 243    96    94   141.5    86.1    44.7    4.94    1.81    143.1     9.1    27.7    17.0    3.00    1.10     1.5    1.1    2.6    3.58    1.97
 1997 244    97    95   144.0    88.6    44.6    4.95    1.80    145.3     9.3    27.6    17.0    2.98    1.10     1.5    1.1    2.2    3.62    2.00
 1997 245    98    96   146.3    91.2    44.4    4.95    1.79    147.5     9.6    27.4    17.0    2.96    1.09     1.5    1.1    2.2    3.66    2.02
 1997 246    99    97   147.9    93.6    43.8    4.96    1.75    148.8     9.8    27.0    16.8    2.92    1.07     1.4    1.0    1.3    3.70    2.05
 1997 247   100    98   149.4    96.0    43.2    4.98    1.73    150.0    10.2    26.7    16.5    2.89    1.05     1.4    1.0    1.2    3.74    2.07
 1997 248   101    99   151.8    98.3    43.3    4.98    1.72    152.1    10.4    26.6    16.7    2.88    1.05     1.4    1.0    2.1    3.77    2.09
 1997 249   102   100   152.0    99.3    42.8    4.94    1.67    152.1    10.7    26.3    16.5    2.83    1.01     1.4    1.0    0.0    3.80    2.11

*DSSAT Cropping System Model Ver. 4.5.1.023 -Stub         DEC 04, 2014; 01:35:35
                                                                                
*RUN   2        : 97 DATE1 F-MIX            CRGRO045 GHNY9701    2              
 MODEL          : CRGRO045 - Peanut                                             
 EXPERIMENT     : GHNY9701 PN 1997 VARIETY X PLANTING DATE EXPERIMENT           
 DATA PATH      :                                                               
 TREATMENT  2   : 97 DATE1 F-MIX            CRGRO045                            
  
@YEAR DOY   DAS   DAP    CNAD    GNAD    VNAD    GN%D    VN%D     NFXC    NUPC    LNAD    SNAD    LN%D    SN%D    SHND   RN%D   NFXD   SNN0C   SNN1C
 1997 149     2     0     0.0     0.0     0.0    0.00    0.00      0.0     0.0     0.0     0.0    0.00    0.00     0.0    0.0    0.0    0.00    0.00
 1997 150     3     1     0.0     0.0     0.0    0.00    0.00      0.0     0.0     0.0     0.0    0.00    0.00     0.0    0.0    0.0    0.00    0.00
 1997 151     4     2     0.0     0.0     0.0    0.00    0.00      0.0     0.0     0.0     0.0    0.00    0.00     0.0    0.0    0.0    0.00    0.00
 1997 152     5     3     0.0     0.0     0.0    0.00    0.00      0.0     0.0     0.0     0.0    0.00    0.00     0.0    0.0    0.0    0.00    0.00
 1997 153     6     4     0.0     0.0     0.0    0.00    0.00      0.0     0.0     0.0     0.0    0.00    0.00     0.0    0.0    0.0    0.00    0.00
 1997 154     7     5     0.0     0.0     0.0    0.00    0.00      0.0     0.0     0.0     0.0    0.00    0.00     0.0    0.0    0.0    0.00    0.00
 1997 155     8     6     0.0     0.0     0.0    0.00    0.00      0.0     0.0     0.0     0.0    0.00    0.00     0.0    0.0    0.0    0.00    0.00
 1997 156     9     7     0.0     0.0     0.0    0.00    0.00      0.0     0.0     0.0     0.0    0.00    0.00     0.0    0.0    0.0    0.00    0.00
 1997 157    10     8     0.6     0.0     0.6    0.00    4.84      0.1     0.0     0.6     0.1    5.36    2.56     0.0    2.3    0.0    0.00    0.01
 1997 158    11     9     0.7     0.0     0.7    0.00    4.79      0.1     0.0     0.6     0.1    5.29    2.52     0.0    2.2    0.0    0.00    0.01
 1997 159    12    10     0.7     0.0     0.7    0.00    4.79      0.1     0.0     0.7     0.1    5.29    2.51     0.0    2.2    0.0    0.00    0.01
 1997 160    13    11     0.8     0.0     0.8    0.00    4.73      0.2     0.0     0.8     0.1    5.20    2.46     0.0    2.2    0.1    0.00    0.01
 1997 161    14    12     0.9     0.0     0.9    0.00    4.70      0.3     0.0     0.9     0.1    5.14    2.43     0.0    2.1    0.1    0.00    0.02
 1997 162    15    13     1.0     0.0     1.0    0.00    4.70      0.4     0.0     1.0     0.1    5.12    2.41     0.0    2.1    0.1    0.00    0.02
 1997 163    16    14     1.1     0.0     1.1    0.00    4.51      0.5     0.0     1.0     0.1    4.98    2.25     0.0    2.0    0.1    0.01    0.02
 1997 164    17    15     1.3     0.0     1.3    0.00    4.47      0.6     0.0     1.1     0.1    4.97    2.28     0.0    2.0    0.1    0.01    0.03
 1997 165    18    16     1.4     0.0     1.4    0.00    4.31      0.8     0.0     1.2     0.1    4.87    2.15     0.0    1.9    0.1    0.01    0.03
 1997 166    19    17     1.5     0.0     1.5    0.00    4.17      0.9     0.0     1.3     0.2    4.79    2.13     0.0    1.9    0.1    0.01    0.03
 1997 167    20    18     1.6     0.0     1.6    0.00    4.04      1.1     0.0     1.4     0.2    4.74    2.13     0.0    1.9    0.2    0.01    0.04
 1997 168    21    19     1.8     0.0     1.8    0.00    3.94      1.4     0.0     1.5     0.3    4.72    2.16     0.0    1.9    0.2    0.02    0.04
 1997 169    22    20     2.0     0.0     2.0    0.00    3.83      1.7     0.0     1.7     0.4    4.62    2.11     0.0    1.9    0.2    0.02    0.05
 1997 170    23    21     2.3     0.0     2.3    0.00    3.81      2.0     0.0     1.9     0.4    4.62    2.12     0.0    1.8    0.3    0.02    0.05
 1997 171    24    22     2.6     0.0     2.6    0.00    3.75      2.4     0.0     2.1     0.5    4.57    2.10     0.0    1.8    0.3    0.02    0.06
 1997 172    25    23     2.9     0.0     2.9    0.00    3.71      2.9     0.0     2.4     0.6    4.56    2.10     0.0    1.8    0.4    0.03    0.06
 1997 173    26    24     3.2     0.0     3.2    0.00    3.73      3.3     0.0     2.6     0.7    4.59    2.13     0.0    1.8    0.3    0.03    0.07
 1997 174    27    25     3.6     0.0     3.6    0.00    3.75      3.7     0.0     2.9     0.8    4.64    2.17     0.0    1.8    0.4    0.03    0.08
 1997 175    28    26     4.1     0.0     4.1    0.00    3.74      4.2     0.0     3.2     0.9    4.65    2.18     0.0    1.8    0.5    0.04    0.08
 1997 176    29    27     4.6     0.0     4.6    0.00    3.66      4.9     0.0     3.5     1.0    4.59    2.15     0.0    1.8    0.5    0.04    0.09
 1997 177    30    28     5.2     0.0     5.2    0.00    3.55      5.6     0.0     4.0     1.2    4.50    2.09     0.0    1.8    0.6    0.05    0.10
 1997 178    31    29     5.9     0.0     5.9    0.00    3.51      6.5     0.0     4.5     1.4    4.48    2.09     0.0    1.7    0.8    0.05    0.11
 1997 179    32    30     6.6     0.0     6.6    0.00    3.54      7.4     0.0     5.0     1.7    4.54    2.13     0.0    1.8    0.8    0.06    0.12
 1997 180    33    31     7.4     0.0     7.4    0.00    3.49      8.5     0.0     5.5     1.9    4.51    2.11     0.0    1.8    0.9    0.06    0.12
 1997 181    34    32     8.5     0.0     8.5    0.00    3.52      9.6     0.0     6.2     2.2    4.56    2.14     0.0    1.8    1.1    0.07    0.13
 1997 182    35    33     9.5     0.0     9.5    0.00    3.49     10.9     0.0     7.0     2.5    4.55    2.13     0.0    1.8    1.1    0.08    0.15
 1997 183    36    34    10.4     0.0    10.4    0.00    3.50     11.9     0.0     7.6     2.8    4.58    2.14     0.0    1.8    1.0    0.09    0.16
 1997 184    37    35    11.4     0.0    11.4    0.00    3.51     13.0     0.0     8.2     3.1    4.62    2.16     0.0    1.8    1.1    0.10    0.17
 1997 185    38    36    12.5     0.0    12.5    0.00    3.52     14.2     0.0     9.0     3.5    4.65    2.17     0.0    1.8    1.2    0.11    0.18
 1997 186    39    37    13.7     0.0    13.7    0.00    3.46     15.9     0.0     9.8     3.9    4.59    2.13     0.0    1.8    1.3    0.13    0.19
 1997 187    40    38    15.2     0.0    15.2    0.00    3.44     17.6     0.1    10.8     4.4    4.59    2.12     0.0    1.8    1.6    0.14    0.21
 1997 188    41    39    16.9     0.0    16.9    0.00    3.43     19.6     0.1    12.0     4.9    4.60    2.12     2.8    1.8    1.8    0.16    0.22
 1997 189    42    40    18.6     0.0    18.6    0.00    3.41     21.8     0.2    13.1     5.5    4.59    2.12     2.8    1.8    1.9    0.18    0.24
 1997 190    43    41    20.7     0.0    20.7    0.00    3.41     24.1     0.3    14.5     6.2    4.62    2.12     2.8    1.8    2.2    0.20    0.26
 1997 191    44    42    22.6     0.0    22.5    0.00    3.42     25.9     0.5    15.7     6.8    4.64    2.13     2.8    1.8    1.8    0.22    0.28
 1997 192    45    43    24.5     0.0    24.5    0.00    3.42     27.9     0.7    17.0     7.5    4.66    2.14     2.8    1.8    1.9    0.24    0.30
 1997 193    46    44    26.8     0.0    26.8    0.00    3.38     30.5     0.9    18.5     8.3    4.63    2.12     2.8    1.8    2.3    0.27    0.32
 1997 194    47    45    29.4     0.0    29.3    0.00    3.36     33.5     1.1    20.1     9.2    4.62    2.10     2.8    1.8    2.6    0.32    0.34
 1997 195    48    46    32.2     0.0    32.0    0.00    3.36     36.6     1.2    21.8    10.1    4.64    2.10     2.8    1.8    2.9    0.39    0.37
 1997 196    49    47    34.2     0.0    34.0    0.00    3.35     38.8     1.2    23.1    10.9    4.65    2.10     2.8    1.8    2.3    0.47    0.40
 1997 197    50    48    35.8     0.0    35.5    0.00    3.34     40.6     1.2    24.0    11.4    4.65    2.10     2.8    1.8    1.8    0.53    0.42
 1997 198    51    49    38.6     0.0    38.1    0.00    3.33     43.8     1.2    25.7    12.4    4.65    2.09     2.8    1.8    3.0    0.59    0.45
 1997 199    52    50    41.6     0.0    40.9    0.00    3.31     47.2     1.2    27.5    13.4    4.64    2.08     2.7    1.8    3.2    0.63    0.48
 1997 200    53    51    44.7     0.0    43.9    4.39    3.29     50.8     1.3    29.4    14.5    4.64    2.07     2.7    1.8    3.4    0.68    0.51
 1997 201    54    52    47.4     0.0    46.3    4.25    3.28     53.7     1.3    30.9    15.4    4.63    2.07     2.7    1.8    2.9    0.73    0.55
 1997 202    55    53    48.9     0.1    47.6    4.25    3.25     55.3     1.3    31.7    15.9    4.61    2.05     2.7    1.8    1.7    0.78    0.58
 1997 203    56    54    52.3     0.2    50.7    4.32    3.22     59.4     1.4    33.6    17.1    4.58    2.03     2.7    1.8    3.6    0.83    0.61
 1997 204    57    55    55.8     0.3    53.8    4.39    3.21     63.1     1.5    35.5    18.3    4.59    2.03     2.7    1.8    3.7    0.89    0.65
 1997 205    58    56    59.2     0.5    56.7    4.41    3.20     66.7     1.6    37.3    19.5    4.58    2.03     2.7    1.8    3.6    0.95    0.69
 1997 206    59    57    63.2     0.6    60.2    4.39    3.19     70.8     1.8    39.4    20.8    4.58    2.02     2.7    1.8    4.1    1.01    0.73
 1997 207    60    58    67.2     0.9    63.6    4.43    3.17     75.0     2.0    41.4    22.2    4.58    2.02     2.6    1.8    4.1    1.08    0.78
 1997 208    61    59    71.0     1.1    66.8    4.46    3.16     78.9     2.2    43.3    23.5    4.57    2.01     2.6    1.8    3.9    1.15    0.82
 1997 209    62    60    75.0     1.4    70.1    4.48    3.14     83.1     2.4    45.3    24.8    4.56    2.00     2.6    1.8    4.1    1.23    0.87
 1997 210    63    61    77.8     1.7    72.1    4.48    3.12     85.8     2.7    46.5    25.7    4.54    1.99     2.6    1.8    2.7    1.31    0.92
 1997 211    64    62    79.8     2.1    73.3    4.46    3.09     87.7     3.0    47.2    26.2    4.51    1.97     2.6    1.8    1.9    1.40    0.97
 1997 212    65    63    81.3     2.5    73.9    4.40    3.05     89.1     3.2    47.5    26.4    4.48    1.94     2.6    1.8    1.4    1.48    1.02
 1997 213    66    64    83.5     3.0    75.1    4.38    3.03     91.4     3.4    48.2    27.0    4.46    1.93     2.6    1.8    2.3    1.57    1.07
 1997 214    67    65    87.6     3.6    78.2    4.39    3.01     95.4     3.7    49.9    28.3    4.45    1.92     2.5    1.8    4.1    1.66    1.12
 1997 215    68    66    91.4     4.2    80.9    4.42    2.99     99.3     3.8    51.4    29.5    4.43    1.91     2.5    1.8    3.9    1.75    1.17
 1997 216    69    67    93.6     4.9    81.9    4.42    2.96    101.6     4.0    52.0    30.0    4.40    1.89     2.5    1.7    2.3    1.85    1.22
 1997 217    70    68    96.4     5.6    83.4    4.42    2.94    104.4     4.2    52.7    30.7    4.38    1.87     2.5    1.7    2.7    1.95    1.28
 1997 218    71    69    97.4     6.4    83.1    4.39    2.90    105.2     4.5    52.5    30.6    4.33    1.85     2.5    1.7    0.8    2.05    1.32
 1997 219    72    70    99.9     7.3    84.1    4.39    2.87    107.6     4.7    53.0    31.1    4.31    1.83     2.5    1.7    2.4    2.16    1.38
 1997 220    73    71   103.9     8.3    86.6    4.38    2.85    111.7     4.9    54.3    32.2    4.29    1.82     2.5    1.7    4.1    2.25    1.43
 1997 221    74    72   106.5     9.4    87.7    4.40    2.83    114.3     5.1    54.9    32.8    4.27    1.81     2.4    1.7    2.6    2.36    1.48
 1997 222    75    73   110.3    10.5    89.8    4.40    2.80    118.2     5.2    56.0    33.8    4.25    1.80     2.4    1.7    3.9    2.46    1.54
 1997 223    76    74   114.1    11.7    91.8    4.40    2.78    122.0     5.5    57.0    34.8    4.23    1.78     2.4    1.6    3.8    2.57    1.59
 1997 224    77    75   117.2    13.0    93.1    4.40    2.76    125.1     5.6    57.7    35.5    4.20    1.77     2.4    1.6    3.2    2.68    1.65
 1997 225    78    76   120.4    14.4    94.5    4.41    2.73    128.3     5.9    58.3    36.2    4.18    1.76     2.4    1.6    3.1    2.79    1.71
 1997 226    79    77   123.5    15.8    95.7    4.42    2.71    131.4     6.1    58.9    36.8    4.15    1.74     2.3    1.6    3.1    2.90    1.77
 1997 227    80    78   124.4    17.3    94.5    4.41    2.67    132.2     6.2    58.1    36.4    4.11    1.71     2.3    1.6    0.8    3.02    1.82
 1997 228    81    79   127.8    18.9    95.9    4.42    2.65    135.5     6.5    58.8    37.1    4.09    1.70     2.3    1.6    3.3    3.13    1.88
 1997 229    82    80   129.9    20.6    95.9    4.42    2.62    137.5     6.7    58.6    37.2    4.05    1.68     2.3    1.6    2.0    3.24    1.93
 1997 230    83    81   133.0    22.3    96.8    4.44    2.60    140.5     7.0    59.0    37.8    4.03    1.67     2.3    1.5    3.0    3.35    1.99
 1997 231    84    82   136.5    24.1    98.0    4.43    2.58    143.7     7.4    59.5    38.5    4.01    1.66     2.3    1.5    3.3    3.47    2.04
 1997 232    85    83   139.8    26.0    99.0    4.43    2.56    147.0     7.6    59.9    39.1    3.99    1.65     2.2    1.5    3.3    3.59    2.10
 1997 233    86    84   143.7    27.9   100.5    4.44    2.54    150.9     7.8    60.6    40.0    3.97    1.64     2.2    1.5    3.8    3.71    2.15
 1997 234    87    85   146.1    29.9   100.6    4.45    2.52    153.3     8.0    60.5    40.1    3.94    1.63     2.2    1.5    2.4    3.84    2.21
 1997 235    88    86   146.4    32.6    98.6    4.53    2.47    153.4     8.2    59.4    39.3    3.89    1.59     2.1    1.5    0.1    3.96    2.35
 1997 236    89    87   149.0    34.8    98.6    4.52    2.45    155.9     8.4    59.2    39.4    3.86    1.58     2.1    1.5    2.5    4.09    2.40
 1997 237    90    88   152.3    37.1    99.3    4.53    2.43    159.1     8.7    59.4    39.9    3.84    1.57     2.1    1.4    3.2    4.23    2.46
 1997 238    91    89   154.8    39.5    99.0    4.52    2.40    161.4     8.9    59.1    39.9    3.81    1.55     2.1    1.4    2.3    4.35    2.51
 1997 239    92    90   157.6    42.0    99.0    4.52    2.38    164.2     9.1    58.9    40.1    3.78    1.54     2.1    1.4    2.8    4.48    2.56
 1997 240    93    91   158.5    44.5    97.7    4.52    2.35    164.8     9.5    58.2    39.6    3.74    1.52     2.0    1.4    0.6    4.60    2.61
 1997 241    94    92   162.1    47.0    98.4    4.51    2.34    168.4     9.6    58.3    40.1    3.73    1.51     2.0    1.4    3.5    4.72    2.66
 1997 242    95    93   165.3    49.7    98.7    4.51    2.32    171.7     9.7    58.3    40.4    3.71    1.51     2.0    1.4    3.3    4.84    2.71
 1997 243    96    94   168.6    52.4    99.1    4.51    2.30    174.8    10.1    58.3    40.8    3.68    1.50     2.0    1.4    3.1    4.96    2.76
 1997 244    97    95   171.6    55.0    99.1    4.51    2.28    177.7    10.2    58.1    41.0    3.66    1.49     2.0    1.4    3.0    5.08    2.81
 1997 245    98    96   174.3    57.8    98.9    4.51    2.26    180.2    10.5    57.8    41.0    3.64    1.48     1.9    1.3    2.5    5.20    2.86
 1997 246    99    97   175.6    60.7    97.7    4.50    2.23    181.3    10.8    57.1    40.6    3.60    1.46     1.9    1.3    1.0    5.32    2.91
 1997 247   100    98   177.0    63.5    96.6    4.50    2.21    182.5    10.9    56.4    40.2    3.56    1.44     1.9    1.3    1.3    5.43    2.96
 1997 248   101    99   179.9    66.3    96.4    4.50    2.19    185.2    11.3    56.2    40.3    3.54    1.43     1.8    1.3    2.6    5.53    3.01
 1997 249   102   100   181.8    69.2    95.6    4.50    2.17    187.0    11.5    55.6    40.0    3.51    1.41     1.8    1.3    1.8    5.64    3.05
 1997 250   103   101   184.4    72.0    95.1    4.49    2.15    189.2    11.9    55.2    39.9    3.48    1.40     1.8    1.3    2.2    5.75    3.10
 1997 251   104   102   187.6    74.9    95.2    4.49    2.13    192.4    12.1    55.1    40.2    3.47    1.40     1.8    1.3    3.2    5.85    3.14
 1997 252   105   103   189.1    77.9    94.2    4.49    2.11    193.8    12.2    54.4    39.8    3.43    1.38     1.7    1.2    1.4    5.95    3.19
 1997 253   106   104   191.4    80.9    93.6    4.49    2.09    196.1    12.4    53.9    39.6    3.41    1.37     1.7    1.2    2.3    6.05    3.23
 1997 254   107   105   193.6    83.8    92.9    4.49    2.07    198.2    12.5    53.4    39.5    3.38    1.36     1.7    1.2    2.2    6.15    3.27
 1997 255   108   106   196.6    86.8    92.8    4.48    2.06    201.3    12.5    53.2    39.6    3.36    1.35     1.7    1.2    3.1    6.24    3.32
 1997 256   109   107   199.7    89.7    92.9    4.49    2.04    204.3    12.6    53.0    39.8    3.35    1.34     1.7    1.2    3.0    6.34    3.36
 1997 257   110   108   202.0    92.6    92.3    4.48    2.03    206.7    12.6    52.6    39.7    3.32    1.33     1.6    1.2    2.4    6.43    3.40
 1997 258   111   109   205.0    95.5    92.3    4.49    2.01    209.7    12.7    52.4    39.9    3.31    1.33     1.6    1.2    2.9    6.52    3.44
 1997 259   112   110   207.8    98.3    92.2    4.48    2.00    212.5    12.8    52.2    40.0    3.29    1.32     1.6    1.2    2.9    6.61    3.48
 1997 260   113   111   210.6   101.1    92.3    4.48    1.99    215.4    12.9    52.0    40.3    3.27    1.32     1.6    1.2    2.9    6.70    3.52
 1997 261   114   112   211.4   104.0    90.5    4.50    1.95    216.0    13.0    51.1    39.4    3.22    1.29     1.6    1.1    0.6    6.79    3.56
 1997 262   115   113   213.7   107.1    89.7    4.51    1.93    218.4    13.0    50.6    39.1    3.20    1.27     1.5    1.1    2.4    6.88    3.59
 1997 263   116   114   215.7   110.1    88.8    4.53    1.90    220.3    13.1    50.0    38.7    3.17    1.26     1.5    1.1    2.0    6.96    3.63
 1997 264   117   115   218.7   112.8    89.1    4.53    1.90    223.4    13.1    50.0    39.1    3.16    1.26     1.5    1.1    3.1    7.04    3.67
 1997 265   118   116   221.3   115.4    89.2    4.53    1.89    225.9    13.3    49.8    39.3    3.14    1.26     1.5    1.1    2.5    7.11    3.71
 1997 266   119   117   221.8   117.8    87.6    4.55    1.86    226.3    13.3    49.0    38.6    3.10    1.23     1.5    1.1    0.4    7.19    3.74
 1997 267   120   118   224.5   120.5    87.7    4.56    1.85    228.9    13.5    48.9    38.8    3.09    1.22     1.5    1.1    2.6    7.27    3.78
 1997 268   121   119   225.4   123.2    86.2    4.58    1.81    229.8    13.6    48.2    38.1    3.05    1.20     1.4    1.1    0.9    7.34    3.81
 1997 269   122   120   227.6   125.7    86.0    4.59    1.80    231.9    13.8    47.9    38.0    3.03    1.19     1.4    1.1    2.1    7.40    3.85
 1997 270   123   121   227.7   127.3    84.7    4.57    1.74    231.9    13.8    47.3    37.4    2.97    1.14     1.4    1.0    0.0    7.47    3.88

*DSSAT Cropping System Model Ver. 4.5.1.023 -Stub         DEC 04, 2014; 01:35:35
                                                                                
*RUN   3        : 97 DATE2 CHINESE          CRGRO045 GHNY9701    3              
 MODEL          : CRGRO045 - Peanut                                             
 EXPERIMENT     : GHNY9701 PN 1997 VARIETY X PLANTING DATE EXPERIMENT           
 DATA PATH      :                                                               
 TREATMENT  3   : 97 DATE2 CHINESE          CRGRO045                            
  
@YEAR DOY   DAS   DAP    CNAD    GNAD    VNAD    GN%D    VN%D     NFXC    NUPC    LNAD    SNAD    LN%D    SN%D    SHND   RN%D   NFXD   SNN0C   SNN1C
 1997 177     2     0     0.0     0.0     0.0    0.00    0.00      0.0     0.0     0.0     0.0    0.00    0.00     0.0    0.0    0.0    0.00    0.00
 1997 178     3     1     0.0     0.0     0.0    0.00    0.00      0.0     0.0     0.0     0.0    0.00    0.00     0.0    0.0    0.0    0.00    0.00
 1997 179     4     2     0.0     0.0     0.0    0.00    0.00      0.0     0.0     0.0     0.0    0.00    0.00     0.0    0.0    0.0    0.00    0.00
 1997 180     5     3     0.0     0.0     0.0    0.00    0.00      0.0     0.0     0.0     0.0    0.00    0.00     0.0    0.0    0.0    0.00    0.00
 1997 181     6     4     0.0     0.0     0.0    0.00    0.00      0.0     0.0     0.0     0.0    0.00    0.00     0.0    0.0    0.0    0.00    0.00
 1997 182     7     5     0.0     0.0     0.0    0.00    0.00      0.0     0.0     0.0     0.0    0.00    0.00     0.0    0.0    0.0    0.00    0.00
 1997 183     8     6     0.0     0.0     0.0    0.00    0.00      0.0     0.0     0.0     0.0    0.00    0.00     0.0    0.0    0.0    0.00    0.00
 1997 184     9     7     0.5     0.0     0.5    0.00    4.84      0.1     0.0     0.5     0.1    5.36    2.56     0.0    2.3    0.0    0.00    0.00
 1997 185    10     8     0.5     0.0     0.5    0.00    4.81      0.1     0.0     0.5     0.1    5.31    2.52     0.0    2.2    0.0    0.00    0.01
 1997 186    11     9     0.6     0.0     0.6    0.00    4.82      0.1     0.0     0.5     0.1    5.30    2.50     0.0    2.2    0.0    0.00    0.01
 1997 187    12    10     0.7     0.0     0.7    0.00    4.80      0.2     0.0     0.6     0.1    5.27    2.47     0.0    2.2    0.1    0.00    0.01
 1997 188    13    11     0.8     0.0     0.8    0.00    4.74      0.3     0.0     0.7     0.1    5.17    2.43     0.0    2.2    0.1    0.00    0.01
 1997 189    14    12     0.9     0.0     0.9    0.00    4.60      0.4     0.0     0.8     0.1    5.00    2.33     0.0    2.1    0.1    0.00    0.02
 1997 190    15    13     1.0     0.0     1.0    0.00    4.46      0.5     0.0     0.9     0.1    4.87    2.22     0.0    2.0    0.1    0.00    0.02
 1997 191    16    14     1.1     0.0     1.1    0.00    4.44      0.6     0.0     1.0     0.1    4.86    2.24     0.0    2.0    0.1    0.00    0.02
 1997 192    17    15     1.2     0.0     1.2    0.00    4.38      0.8     0.0     1.1     0.1    4.83    2.23     0.0    2.0    0.1    0.01    0.02
 1997 193    18    16     1.3     0.0     1.3    0.00    4.21      0.9     0.0     1.2     0.1    4.73    2.10     0.0    1.9    0.1    0.01    0.03
 1997 194    19    17     1.5     0.0     1.5    0.00    4.05      1.2     0.0     1.3     0.2    4.65    2.06     0.0    1.9    0.2    0.01    0.03
 1997 195    20    18     1.7     0.0     1.7    0.00    3.97      1.4     0.0     1.4     0.2    4.65    2.14     0.0    1.9    0.2    0.01    0.03
 1997 196    21    19     1.9     0.0     1.9    0.00    3.98      1.6     0.0     1.6     0.3    4.69    2.18     0.0    1.9    0.2    0.01    0.04
 1997 197    22    20     2.0     0.0     2.0    0.00    3.98      1.8     0.0     1.7     0.3    4.71    2.21     0.0    1.9    0.2    0.02    0.04
 1997 198    23    21     2.3     0.0     2.3    0.00    3.86      2.1     0.0     1.9     0.4    4.63    2.10     0.0    1.8    0.3    0.02    0.05
 1997 199    24    22     2.5     0.0     2.5    0.00    3.77      2.5     0.0     2.1     0.4    4.57    2.08     0.0    1.8    0.3    0.02    0.05
 1997 200    25    23     2.9     0.0     2.9    0.00    3.70      3.0     0.0     2.3     0.5    4.52    2.07     0.0    1.8    0.4    0.02    0.06
 1997 201    26    24     3.3     0.0     3.3    0.00    3.73      3.4     0.0     2.6     0.6    4.58    2.12     0.0    1.8    0.4    0.03    0.06
 1997 202    27    25     3.6     0.0     3.6    0.00    3.74      3.7     0.0     2.8     0.7    4.61    2.15     0.0    1.8    0.3    0.03    0.07
 1997 203    28    26     4.0     0.0     4.0    0.00    3.59      4.3     0.0     3.2     0.8    4.51    2.03     0.0    1.8    0.5    0.04    0.07
 1997 204    29    27     4.5     0.0     4.5    0.00    3.53      5.0     0.0     3.5     1.0    4.47    2.02     0.0    1.7    0.5    0.04    0.08
 1997 205    30    28     5.1     0.0     5.1    0.00    3.52      5.7     0.0     3.9     1.2    4.48    2.04     0.0    1.8    0.7    0.04    0.09
 1997 206    31    29     5.7     0.0     5.7    0.00    3.50      6.6     0.0     4.4     1.4    4.47    2.04     0.0    1.8    0.7    0.05    0.09
 1997 207    32    30     6.5     0.0     6.5    0.00    3.50      7.6     0.0     4.9     1.6    4.49    2.06     0.0    1.8    0.9    0.06    0.10
 1997 208    33    31     7.4     0.0     7.4    0.00    3.51      8.6     0.0     5.6     1.8    4.53    2.09     0.0    1.8    1.0    0.06    0.11
 1997 209    34    32     8.3     0.0     8.3    0.00    3.50      9.9     0.0     6.2     2.1    4.55    2.10     0.0    1.8    1.1    0.07    0.12
 1997 210    35    33     9.3     0.0     9.3    0.00    3.52     10.9     0.1     6.9     2.4    4.59    2.12     0.0    1.8    1.0    0.08    0.13
 1997 211    36    34    10.2     0.0    10.2    0.00    3.53     11.8     0.1     7.5     2.7    4.62    2.13     2.8    1.8    0.9    0.09    0.14
 1997 212    37    35    11.0     0.0    11.0    0.00    3.53     12.7     0.2     8.1     3.0    4.64    2.14     2.8    1.8    0.9    0.10    0.15
 1997 213    38    36    12.1     0.0    12.1    0.00    3.53     13.8     0.3     8.8     3.3    4.66    2.15     2.8    1.8    1.1    0.11    0.16
 1997 214    39    37    13.2     0.0    13.2    0.00    3.43     15.3     0.3     9.6     3.7    4.56    2.09     2.8    1.8    1.2    0.13    0.18
 1997 215    40    38    14.7     0.0    14.6    0.00    3.40     17.0     0.5    10.5     4.1    4.54    2.07     2.8    1.8    1.5    0.14    0.19
 1997 216    41    39    16.1     0.0    16.0    0.00    3.41     18.5     0.5    11.4     4.6    4.56    2.09     2.8    1.8    1.5    0.16    0.21
 1997 217    42    40    17.6     0.0    17.5    0.00    3.40     20.3     0.6    12.4     5.1    4.58    2.09     2.8    1.8    1.7    0.17    0.23
 1997 218    43    41    18.8     0.0    18.6    0.00    3.39     21.5     0.6    13.1     5.4    4.58    2.09     2.8    1.8    1.2    0.19    0.24
 1997 219    44    42    20.4     0.0    20.1    0.00    3.38     23.3     0.6    14.1     6.0    4.58    2.08     2.8    1.8    1.8    0.21    0.26
 1997 220    45    43    22.1     0.0    21.7    0.00    3.29     25.6     0.7    15.2     6.5    4.49    2.03     2.8    1.8    1.8    0.23    0.28
 1997 221    46    44    24.1     0.0    23.5    0.00    3.29     27.7     0.7    16.4     7.2    4.52    2.04     2.8    1.8    2.2    0.27    0.31
 1997 222    47    45    26.2     0.0    25.4    0.00    3.25     30.4     0.8    17.6     7.8    4.48    2.01     2.7    1.8    2.2    0.33    0.33
 1997 223    48    46    28.5     0.0    27.6    4.44    3.23     33.2     0.8    18.9     8.6    4.48    2.01     2.7    1.8    2.6    0.39    0.35
 1997 224    49    47    31.0     0.0    29.7    4.40    3.23     35.8     1.0    20.3     9.4    4.50    2.01     2.7    1.8    2.6    0.47    0.38
 1997 225    50    48    33.6     0.1    32.0    4.45    3.23     38.5     1.1    21.7    10.2    4.51    2.01     2.7    1.8    2.7    0.52    0.41
 1997 226    51    49    36.2     0.2    34.2    4.49    3.22     41.2     1.2    23.1    11.1    4.52    2.01     2.7    1.8    2.7    0.56    0.44
 1997 227    52    50    37.7     0.3    35.2    4.41    3.19     42.7     1.4    23.8    11.5    4.49    1.99     2.7    1.8    1.5    0.60    0.47
 1997 228    53    51    40.5     0.5    37.4    4.45    3.17     45.6     1.6    25.1    12.3    4.49    1.98     2.7    1.8    2.8    0.65    0.50
 1997 229    54    52    42.7     0.7    39.1    4.46    3.15     47.9     1.7    26.1    12.9    4.47    1.97     2.7    1.8    2.3    0.69    0.54
 1997 230    55    53    45.6     1.0    41.2    4.50    3.13     50.9     1.8    27.4    13.8    4.47    1.97     2.6    1.8    2.9    0.74    0.57
 1997 231    56    54    48.4     1.3    43.3    4.46    3.10     54.0     2.0    28.7    14.6    4.44    1.95     2.6    1.8    2.9    0.79    0.60
 1997 232    57    55    51.4     1.7    45.4    4.44    3.08     57.2     2.1    30.0    15.4    4.42    1.94     2.6    1.8    3.1    0.85    0.64
 1997 233    58    56    54.4     2.1    47.5    4.48    3.04     60.6     2.2    31.2    16.3    4.39    1.91     2.6    1.8    3.1    0.91    0.68
 1997 234    59    57    57.1     2.6    49.3    4.51    3.02     63.3     2.3    32.2    17.0    4.37    1.90     2.6    1.8    2.7    0.97    0.72
 1997 235    60    58    58.0     3.1    49.1    4.51    2.98     64.1     2.5    32.1    16.9    4.33    1.87     2.6    1.7    0.8    1.04    0.76
 1997 236    61    59    60.8     3.8    50.6    4.50    2.96     66.8     2.7    33.0    17.6    4.32    1.86     2.6    1.7    2.7    1.12    0.80
 1997 237    62    60    64.0     4.5    52.6    4.51    2.94     70.0     3.0    34.1    18.5    4.31    1.85     2.5    1.7    3.2    1.19    0.84
 1997 238    63    61    66.7     5.3    53.9    4.50    2.92     72.8     3.2    34.8    19.0    4.29    1.84     2.5    1.7    2.7    1.27    0.88
 1997 239    64    62    69.7     6.2    55.3    4.51    2.90     75.6     3.5    35.6    19.6    4.27    1.83     2.5    1.7    2.8    1.35    0.92
 1997 240    65    63    71.2     7.2    55.2    4.50    2.86     77.0     3.6    35.5    19.7    4.23    1.81     2.5    1.7    1.4    1.43    0.96
 1997 241    66    64    74.5     8.3    56.8    4.49    2.85     80.2     3.9    36.4    20.4    4.22    1.80     2.5    1.7    3.2    1.51    1.00
 1997 242    67    65    77.7     9.5    58.2    4.48    2.83     83.5     4.1    37.1    21.0    4.21    1.79     2.5    1.7    3.2    1.60    1.05
 1997 243    68    66    80.9    10.8    59.5    4.48    2.81     86.7     4.2    37.8    21.7    4.19    1.78     2.4    1.7    3.3    1.69    1.09
 1997 244    69    67    83.9    12.2    60.5    4.49    2.79     89.6     4.5    38.3    22.2    4.17    1.77     2.4    1.6    2.9    1.79    1.13
 1997 245    70    68    86.8    13.7    61.2    4.49    2.77     92.5     4.7    38.6    22.6    4.15    1.76     2.4    1.6    2.9    1.88    1.18
 1997 246    71    69    88.4    15.4    60.8    4.47    2.73     93.9     4.9    38.4    22.4    4.11    1.74     2.4    1.6    1.5    1.98    1.22
 1997 247    72    70    90.2    17.2    60.4    4.47    2.70     95.5     5.1    38.1    22.3    4.08    1.71     2.3    1.6    1.6    2.06    1.27
 1997 248    73    71    93.1    19.1    60.8    4.48    2.68     98.2     5.4    38.2    22.6    4.05    1.70     2.3    1.6    2.7    2.15    1.31
 1997 249    74    72    95.1    21.0    60.5    4.47    2.64    100.0     5.8    38.0    22.5    4.02    1.68     2.3    1.5    1.8    2.25    1.35
 1997 250    75    73    97.7    23.1    60.5    4.46    2.62    102.5     5.9    37.9    22.6    3.99    1.66     2.3    1.5    2.5    2.34    1.39
 1997 251    76    74   100.7    25.4    60.7    4.47    2.59    105.5     6.1    37.9    22.8    3.96    1.65     2.3    1.5    3.0    2.43    1.43
 1997 252    77    75   102.4    27.7    60.3    4.47    2.56    107.1     6.2    37.6    22.7    3.92    1.63     2.2    1.5    1.6    2.51    1.47
 1997 253    78    76   104.7    30.2    60.0    4.47    2.53    109.4     6.3    37.4    22.7    3.89    1.61     2.2    1.5    2.2    2.60    1.51
 1997 254    79    77   106.9    32.8    59.8    4.46    2.50    111.5     6.4    37.1    22.7    3.85    1.59     2.1    1.4    2.2    2.69    1.55
 1997 255    80    78   109.7    35.5    59.7    4.46    2.48    114.3     6.5    37.0    22.7    3.83    1.58     2.1    1.4    2.8    2.78    1.59
 1997 256    81    79   112.5    38.3    59.6    4.47    2.45    117.1     6.6    36.8    22.8    3.80    1.56     2.1    1.4    2.8    2.86    1.63
 1997 257    82    80   114.8    41.2    59.4    4.46    2.43    119.4     6.6    36.6    22.8    3.76    1.55     2.0    1.4    2.3    2.94    1.66
 1997 258    83    81   117.6    44.3    59.3    4.47    2.40    122.2     6.7    36.4    22.9    3.73    1.53     2.0    1.4    2.8    3.04    1.70
 1997 259    84    82   120.2    47.3    59.1    4.46    2.38    124.8     6.7    36.2    22.9    3.70    1.52     1.9    1.4    2.7    3.12    1.74
 1997 260    85    83   122.9    50.4    59.0    4.46    2.35    127.4     6.9    36.0    23.0    3.67    1.50     1.9    1.3    2.6    3.20    1.77
 1997 261    86    84   123.9    53.1    57.6    4.51    2.28    128.3     7.0    35.2    22.4    3.60    1.45     1.9    1.3    0.9    3.28    1.81
 1997 262    87    85   126.2    57.0    56.4    4.57    2.22    130.6     7.0    34.5    21.9    3.53    1.40     1.8    1.3    2.3    3.36    1.84
 1997 263    88    86   128.3    60.6    55.2    4.62    2.17    132.6     7.1    33.8    21.4    3.46    1.36     1.8    1.3    2.1    3.44    1.87
 1997 264    89    87   131.1    63.9    54.7    4.64    2.13    135.4     7.1    33.5    21.3    3.42    1.34     1.7    1.2    2.8    3.53    1.91
 1997 265    90    88   133.7    67.2    54.2    4.67    2.10    137.9     7.3    33.1    21.1    3.38    1.32     1.7    1.2    2.5    3.63    1.94
 1997 266    91    89   134.5    69.4    53.1    4.70    2.05    138.7     7.4    32.5    20.6    3.33    1.28     1.7    1.2    0.7    3.73    1.97
 1997 267    92    90   137.0    73.1    52.2    4.73    2.01    141.1     7.5    31.9    20.3    3.27    1.25     1.6    1.2    2.4    3.82    2.00
 1997 268    93    91   138.2    75.6    51.2    4.76    1.96    142.1     7.7    31.3    19.9    3.22    1.22     1.6    1.2    1.0    3.91    2.03
 1997 269    94    92   140.5    78.9    50.4    4.79    1.92    144.3     7.8    30.8    19.5    3.17    1.19     1.6    1.1    2.2    3.97    2.06
 1997 270    95    93   143.3    81.9    50.1    4.81    1.91    147.1     7.8    30.6    19.6    3.14    1.18     1.6    1.1    2.8    4.05    2.08
 1997 271    96    94   145.9    84.7    49.9    4.81    1.89    149.8     7.8    30.4    19.6    3.12    1.17     1.5    1.1    2.7    4.13    2.11
 1997 272    97    95   148.5    87.5    49.7    4.83    1.87    152.5     7.9    30.2    19.6    3.09    1.17     1.5    1.1    2.7    4.19    2.14
 1997 273    98    96   151.0    90.3    49.5    4.83    1.86    154.9     7.9    29.9    19.5    3.07    1.16     1.5    1.1    2.4    4.24    2.17
 1997 274    99    97   153.5    92.9    49.4    4.85    1.84    157.3     8.0    29.8    19.6    3.05    1.15     1.5    1.1    2.5    4.29    2.19
 1997 275   100    98   156.0    95.4    49.4    4.86    1.83    159.8     8.2    29.6    19.7    3.03    1.15     1.5    1.1    2.4    4.34    2.22
 1997 276   101    99   157.9    97.7    49.1    4.85    1.81    161.6     8.3    29.4    19.7    3.01    1.14     1.5    1.1    1.8    4.39    2.24
 1997 277   102   100   158.2    99.0    48.3    4.82    1.75    161.6     8.6    29.0    19.4    2.94    1.09     1.4    1.0    0.0    4.43    2.27

*DSSAT Cropping System Model Ver. 4.5.1.023 -Stub         DEC 04, 2014; 01:35:35
                                                                                
*RUN   4        : 97 DATE2 F-MIX            CRGRO045 GHNY9701    4              
 MODEL          : CRGRO045 - Peanut                                             
 EXPERIMENT     : GHNY9701 PN 1997 VARIETY X PLANTING DATE EXPERIMENT           
 DATA PATH      :                                                               
 TREATMENT  4   : 97 DATE2 F-MIX            CRGRO045                            
  
@YEAR DOY   DAS   DAP    CNAD    GNAD    VNAD    GN%D    VN%D     NFXC    NUPC    LNAD    SNAD    LN%D    SN%D    SHND   RN%D   NFXD   SNN0C   SNN1C
 1997 177     2     0     0.0     0.0     0.0    0.00    0.00      0.0     0.0     0.0     0.0    0.00    0.00     0.0    0.0    0.0    0.00    0.00
 1997 178     3     1     0.0     0.0     0.0    0.00    0.00      0.0     0.0     0.0     0.0    0.00    0.00     0.0    0.0    0.0    0.00    0.00
 1997 179     4     2     0.0     0.0     0.0    0.00    0.00      0.0     0.0     0.0     0.0    0.00    0.00     0.0    0.0    0.0    0.00    0.00
 1997 180     5     3     0.0     0.0     0.0    0.00    0.00      0.0     0.0     0.0     0.0    0.00    0.00     0.0    0.0    0.0    0.00    0.00
 1997 181     6     4     0.0     0.0     0.0    0.00    0.00      0.0     0.0     0.0     0.0    0.00    0.00     0.0    0.0    0.0    0.00    0.00
 1997 182     7     5     0.0     0.0     0.0    0.00    0.00      0.0     0.0     0.0     0.0    0.00    0.00     0.0    0.0    0.0    0.00    0.00
 1997 183     8     6     0.0     0.0     0.0    0.00    0.00      0.0     0.0     0.0     0.0    0.00    0.00     0.0    0.0    0.0    0.00    0.00
 1997 184     9     7     0.0     0.0     0.0    0.00    0.00      0.0     0.0     0.0     0.0    0.00    0.00     0.0    0.0    0.0    0.00    0.00
 1997 185    10     8     0.6     0.0     0.6    0.00    4.84      0.1     0.0     0.6     0.1    5.36    2.56     0.0    2.3    0.0    0.00    0.01
 1997 186    11     9     0.7     0.0     0.7    0.00    4.77      0.1     0.0     0.6     0.1    5.27    2.51     0.0    2.2    0.0    0.00    0.01
 1997 187    12    10     0.7     0.0     0.7    0.00    4.79      0.1     0.0     0.7     0.1    5.29    2.51     0.0    2.2    0.0    0.00    0.01
 1997 188    13    11     0.8     0.0     0.8    0.00    4.79      0.2     0.0     0.8     0.1    5.27    2.48     0.0    2.2    0.1    0.00    0.01
 1997 189    14    12     0.9     0.0     0.9    0.00    4.64      0.3     0.0     0.9     0.1    5.07    2.41     0.0    2.1    0.1    0.00    0.02
 1997 190    15    13     1.0     0.0     1.0    0.00    4.49      0.4     0.0     0.9     0.1    4.93    2.28     0.0    2.0    0.1    0.00    0.02
 1997 191    16    14     1.1     0.0     1.1    0.00    4.46      0.5     0.0     1.0     0.1    4.92    2.29     0.0    2.0    0.1    0.01    0.02
 1997 192    17    15     1.3     0.0     1.3    0.00    4.40      0.6     0.0     1.1     0.1    4.90    2.29     0.0    2.0    0.1    0.01    0.03
 1997 193    18    16     1.4     0.0     1.4    0.00    4.23      0.8     0.0     1.2     0.1    4.79    2.15     0.0    1.9    0.1    0.01    0.03
 1997 194    19    17     1.5     0.0     1.5    0.00    4.05      1.0     0.0     1.3     0.2    4.71    2.03     0.0    1.9    0.2    0.01    0.03
 1997 195    20    18     1.7     0.0     1.7    0.00    3.95      1.2     0.0     1.4     0.2    4.68    2.08     0.0    1.9    0.2    0.01    0.04
 1997 196    21    19     1.8     0.0     1.8    0.00    3.91      1.4     0.0     1.5     0.3    4.69    2.15     0.0    1.9    0.2    0.01    0.04
 1997 197    22    20     2.0     0.0     2.0    0.00    3.92      1.6     0.0     1.6     0.3    4.72    2.17     0.0    1.9    0.2    0.02    0.05
 1997 198    23    21     2.2     0.0     2.2    0.00    3.81      1.9     0.0     1.8     0.4    4.62    2.12     0.0    1.8    0.2    0.02    0.05
 1997 199    24    22     2.4     0.0     2.4    0.00    3.74      2.2     0.0     2.0     0.5    4.57    2.10     0.0    1.8    0.3    0.02    0.06
 1997 200    25    23     2.7     0.0     2.7    0.00    3.69      2.6     0.0     2.2     0.5    4.53    2.09     0.0    1.8    0.3    0.02    0.06
 1997 201    26    24     3.1     0.0     3.1    0.00    3.72      3.0     0.0     2.5     0.6    4.59    2.13     0.0    1.8    0.4    0.03    0.07
 1997 202    27    25     3.4     0.0     3.4    0.00    3.73      3.3     0.0     2.7     0.7    4.62    2.16     0.0    1.8    0.3    0.03    0.08
 1997 203    28    26     3.8     0.0     3.8    0.00    3.58      3.9     0.0     3.0     0.8    4.49    2.05     0.0    1.8    0.4    0.03    0.08
 1997 204    29    27     4.3     0.0     4.3    0.00    3.52      4.5     0.0     3.3     0.9    4.44    2.03     0.0    1.7    0.5    0.04    0.09
 1997 205    30    28     4.8     0.0     4.8    0.00    3.50      5.2     0.0     3.7     1.1    4.45    2.05     0.0    1.7    0.6    0.04    0.10
 1997 206    31    29     5.5     0.0     5.5    0.00    3.47      6.0     0.0     4.2     1.3    4.44    2.05     0.0    1.7    0.7    0.05    0.10
 1997 207    32    30     6.2     0.0     6.2    0.00    3.45      7.0     0.0     4.7     1.6    4.45    2.06     0.0    1.7    0.8    0.05    0.11
 1997 208    33    31     7.1     0.0     7.1    0.00    3.46      8.0     0.0     5.3     1.8    4.48    2.08     0.0    1.7    0.9    0.06    0.12
 1997 209    34    32     8.0     0.0     8.0    0.00    3.45      9.2     0.0     5.9     2.1    4.49    2.09     0.0    1.7    1.0    0.07    0.13
 1997 210    35    33     9.0     0.0     9.0    0.00    3.48     10.2     0.1     6.6     2.4    4.54    2.12     0.0    1.8    1.0    0.08    0.14
 1997 211    36    34     9.9     0.0     9.9    0.00    3.49     11.1     0.1     7.2     2.7    4.58    2.14     0.0    1.8    0.9    0.09    0.15
 1997 212    37    35    10.8     0.0    10.8    0.00    3.50     12.0     0.2     7.8     3.0    4.61    2.15     0.0    1.8    0.9    0.10    0.16
 1997 213    38    36    11.9     0.0    11.9    0.00    3.51     13.2     0.3     8.5     3.3    4.64    2.17     0.0    1.8    1.1    0.11    0.17
 1997 214    39    37    13.0     0.0    13.0    0.00    3.43     14.7     0.3     9.3     3.7    4.56    2.12     0.0    1.8    1.2    0.12    0.18
 1997 215    40    38    14.4     0.0    14.4    0.00    3.40     16.4     0.4    10.3     4.2    4.55    2.10     0.0    1.8    1.5    0.13    0.20
 1997 216    41    39    15.9     0.0    15.9    0.00    3.41     17.8     0.6    11.2     4.7    4.58    2.12     2.8    1.8    1.5    0.15    0.21
 1997 217    42    40    17.5     0.0    17.5    0.00    3.41     19.7     0.6    12.3     5.2    4.59    2.12     2.8    1.8    1.7    0.17    0.23
 1997 218    43    41    18.7     0.0    18.7    0.00    3.41     21.0     0.6    13.1     5.6    4.60    2.12     2.8    1.8    1.3    0.18    0.25
 1997 219    44    42    20.4     0.0    20.4    0.00    3.39     22.9     0.6    14.2     6.2    4.61    2.12     2.8    1.8    1.8    0.20    0.26
 1997 220    45    43    22.2     0.0    22.1    0.00    3.31     25.3     0.7    15.4     6.8    4.52    2.06     2.8    1.8    1.9    0.22    0.28
 1997 221    46    44    24.4     0.0    24.3    0.00    3.32     27.6     0.7    16.8     7.5    4.55    2.08     2.8    1.8    2.3    0.25    0.30
 1997 222    47    45    26.5     0.0    26.4    0.00    3.28     30.5     0.8    18.1     8.3    4.52    2.05     2.8    1.8    2.3    0.31    0.32
 1997 223    48    46    29.1     0.0    28.9    0.00    3.27     33.6     0.8    19.7     9.2    4.53    2.05     2.8    1.8    2.8    0.37    0.35
 1997 224    49    47    31.8     0.0    31.6    0.00    3.29     36.5     0.9    21.4    10.2    4.56    2.06     2.8    1.8    2.9    0.45    0.37
 1997 225    50    48    34.7     0.0    34.4    0.00    3.29     39.6     1.1    23.2    11.2    4.59    2.07     2.8    1.8    3.1    0.55    0.40
 1997 226    51    49    37.7     0.0    37.2    0.00    3.29     42.8     1.2    25.0    12.2    4.61    2.08     2.8    1.8    3.1    0.63    0.43
 1997 227    52    50    39.5     0.0    38.9    0.00    3.28     44.7     1.4    26.1    12.9    4.61    2.07     2.7    1.8    1.9    0.69    0.46
 1997 228    53    51    42.6     0.0    41.8    4.53    3.26     48.1     1.5    27.9    13.9    4.60    2.06     2.7    1.8    3.2    0.73    0.49
 1997 229    54    52    45.3     0.0    44.4    4.49    3.25     51.0     1.7    29.5    14.9    4.60    2.05     2.7    1.8    2.9    0.78    0.53
 1997 230    55    53    48.6     0.1    47.5    4.56    3.24     54.5     1.8    31.4    16.1    4.60    2.05     2.7    1.8    3.4    0.83    0.56
 1997 231    56    54    52.0     0.2    50.5    4.47    3.21     58.4     1.9    33.3    17.2    4.59    2.04     2.7    1.8    3.5    0.88    0.60
 1997 232    57    55    55.7     0.3    53.8    4.43    3.20     62.3     2.0    35.3    18.5    4.59    2.03     2.7    1.8    3.9    0.94    0.64
 1997 233    58    56    59.4     0.4    57.2    4.50    3.18     66.6     2.2    37.3    19.8    4.58    2.02     2.7    1.8    3.9    1.00    0.68
 1997 234    59    57    62.7     0.5    60.0    4.54    3.17     70.0     2.3    39.1    21.0    4.57    2.02     2.7    1.8    3.4    1.07    0.72
 1997 235    60    58    64.0     0.7    60.8    4.54    3.14     71.1     2.6    39.5    21.3    4.54    2.00     2.6    1.8    1.1    1.14    0.76
 1997 236    61    59    67.4     1.0    63.7    4.51    3.13     74.7     2.8    41.2    22.4    4.54    1.99     2.6    1.8    3.6    1.21    0.81
 1997 237    62    60    71.5     1.2    67.1    4.52    3.12     78.8     3.1    43.3    23.8    4.54    1.99     2.6    1.8    4.1    1.29    0.85
 1997 238    63    61    74.9     1.5    69.7    4.51    3.10     82.3     3.2    44.8    24.9    4.53    1.98     2.6    1.8    3.5    1.37    0.90
 1997 239    64    62    78.5     1.9    72.6    4.52    3.08     85.9     3.5    46.5    26.1    4.52    1.97     2.6    1.8    3.6    1.45    0.95
 1997 240    65    63    80.5     2.3    73.8    4.50    3.05     87.8     3.7    47.1    26.6    4.49    1.95     2.6    1.8    1.9    1.54    1.00
 1997 241    66    64    84.6     2.7    77.0    4.49    3.04     92.0     4.0    49.0    28.0    4.48    1.95     2.6    1.8    4.1    1.63    1.05
 1997 242    67    65    88.6     3.2    80.0    4.48    3.02     96.1     4.2    50.7    29.3    4.47    1.94     2.6    1.8    4.1    1.73    1.10
 1997 243    68    66    92.6     3.8    83.0    4.48    3.00    100.3     4.3    52.4    30.6    4.46    1.93     2.5    1.8    4.2    1.83    1.15
 1997 244    69    67    96.3     4.4    85.5    4.49    2.98    104.1     4.5    53.8    31.7    4.44    1.92     2.5    1.8    3.8    1.94    1.21
 1997 245    70    68    99.8     5.2    87.9    4.49    2.96    107.6     4.9    55.1    32.8    4.42    1.90     2.5    1.8    3.5    2.05    1.26
 1997 246    71    69   101.9     5.9    88.5    4.47    2.93    109.6     4.9    55.4    33.2    4.39    1.88     2.5    1.7    2.1    2.16    1.32
 1997 247    72    70   104.0     6.8    89.2    4.47    2.89    111.5     5.3    55.7    33.5    4.35    1.86     2.5    1.7    1.9    2.26    1.38
 1997 248    73    71   107.6     7.7    91.4    4.47    2.87    115.0     5.7    56.9    34.5    4.34    1.85     2.5    1.7    3.5    2.37    1.43
 1997 249    74    72   110.2     8.7    92.5    4.47    2.85    117.6     5.9    57.4    35.1    4.31    1.83     2.5    1.7    2.6    2.48    1.49
 1997 250    75    73   113.4     9.7    94.1    4.46    2.82    120.7     6.2    58.2    35.9    4.29    1.82     2.4    1.7    3.1    2.59    1.55
 1997 251    76    74   117.3    10.9    96.2    4.47    2.80    124.7     6.4    59.3    36.9    4.27    1.80     2.4    1.7    3.9    2.72    1.60
 1997 252    77    75   119.2    12.2    96.3    4.47    2.77    126.5     6.5    59.3    37.0    4.23    1.78     2.4    1.6    1.9    2.83    1.66
 1997 253    78    76   122.1    13.6    97.2    4.47    2.74    129.5     6.6    59.7    37.6    4.20    1.77     2.4    1.6    3.0    2.95    1.72
 1997 254    79    77   124.8    15.0    97.9    4.45    2.71    132.3     6.7    60.0    38.0    4.17    1.75     2.4    1.6    2.8    3.07    1.78
 1997 255    80    78   128.4    16.6    99.4    4.45    2.69    136.1     6.8    60.6    38.8    4.15    1.74     2.4    1.6    3.8    3.18    1.84
 1997 256    81    79   131.9    18.2   100.9    4.47    2.67    139.7     6.9    61.3    39.5    4.13    1.73     2.3    1.6    3.6    3.30    1.90
 1997 257    82    80   134.8    19.8   101.6    4.46    2.65    142.7     6.9    61.6    40.0    4.11    1.71     2.3    1.6    3.0    3.43    1.95
 1997 258    83    81   138.3    21.6   102.8    4.46    2.63    146.3     7.0    62.1    40.7    4.08    1.70     2.3    1.6    3.5    3.55    2.01
 1997 259    84    82   141.6    23.4   103.8    4.46    2.61    149.8     7.1    62.5    41.3    4.06    1.69     2.3    1.6    3.5    3.67    2.06
 1997 260    85    83   145.0    25.3   104.8    4.45    2.58    153.1     7.3    62.9    41.9    4.04    1.68     2.3    1.6    3.3    3.80    2.12
 1997 261    86    84   145.8    27.3   103.3    4.43    2.55    153.8     7.4    62.0    41.3    3.99    1.65     2.2    1.5    0.7    3.93    2.18
 1997 262    87    85   148.6    29.4   103.5    4.43    2.52    156.7     7.4    62.0    41.5    3.97    1.64     2.2    1.5    2.9    4.06    2.23
 1997 263    88    86   150.8    31.5   103.2    4.44    2.50    159.0     7.4    61.7    41.5    3.94    1.62     2.2    1.5    2.3    4.19    2.29
 1997 264    89    87   154.3    33.8   104.1    4.45    2.48    162.7     7.6    62.0    42.1    3.92    1.61     2.2    1.5    3.6    4.31    2.35
 1997 265    90    88   157.4    36.1   104.5    4.47    2.46    165.6     7.8    62.0    42.4    3.89    1.60     2.2    1.5    3.0    4.44    2.41
 1997 266    91    89   157.8    39.1   102.3    4.54    2.41    166.0     7.8    60.8    41.5    3.83    1.56     2.1    1.4    0.4    4.56    2.46
 1997 267    92    90   160.8    41.6   102.5    4.53    2.39    168.9     8.0    60.7    41.8    3.81    1.55     2.1    1.4    2.9    4.70    2.51
 1997 268    93    91   161.4    44.1   101.0    4.52    2.35    169.5     8.1    59.8    41.2    3.77    1.52     2.0    1.4    0.6    4.83    2.56
 1997 269    94    92   163.9    46.7   100.6    4.52    2.33    171.9     8.3    59.4    41.1    3.74    1.51     2.0    1.4    2.4    4.95    2.61
 1997 270    95    93   167.2    49.3   101.1    4.53    2.32    175.4     8.4    59.5    41.6    3.72    1.50     2.0    1.4    3.5    5.08    2.66
 1997 271    96    94   170.6    51.9   101.5    4.52    2.30    178.8     8.4    59.5    42.0    3.70    1.50     2.0    1.4    3.5    5.20    2.71
 1997 272    97    95   173.8    54.7   101.7    4.53    2.28    182.1     8.4    59.4    42.3    3.68    1.49     2.0    1.4    3.3    5.32    2.76
 1997 273    98    96   176.6    57.5   101.5    4.53    2.27    185.0     8.5    59.1    42.3    3.66    1.48     1.9    1.3    2.9    5.44    2.81
 1997 274    99    97   179.5    60.3   101.4    4.54    2.25    188.0     8.6    58.9    42.5    3.63    1.47     1.9    1.3    3.0    5.57    2.87
 1997 275   100    98   182.8    63.2   101.6    4.55    2.23    191.1     8.8    58.8    42.8    3.61    1.46     1.9    1.3    3.1    5.69    2.92
 1997 276   101    99   184.9    66.0   100.8    4.53    2.21    193.0     9.0    58.3    42.5    3.58    1.45     1.9    1.3    1.9    5.81    2.96
 1997 277   102   100   187.4    68.9   100.3    4.52    2.19    195.4     9.3    57.9    42.4    3.56    1.43     1.9    1.3    2.4    5.93    3.01
 1997 278   103   101   188.1    72.0    98.4    4.56    2.14    195.9     9.5    56.8    41.5    3.50    1.40     1.8    1.3    0.5    6.03    3.05
 1997 279   104   102   191.2    75.3    98.1    4.58    2.12    199.0     9.5    56.5    41.6    3.47    1.39     1.8    1.3    3.2    6.14    3.09
 1997 280   105   103   194.1    78.6    97.5    4.59    2.10    202.0     9.6    56.0    41.5    3.44    1.37     1.8    1.2    3.0    6.25    3.14
 1997 281   106   104   194.7    81.6    95.6    4.62    2.06    202.5     9.6    55.0    40.6    3.39    1.34     1.7    1.2    0.5    6.36    3.18
 1997 282   107   105   197.3    84.9    94.8    4.64    2.04    205.1     9.7    54.4    40.3    3.36    1.33     1.7    1.2    2.6    6.47    3.23
 1997 283   108   106   200.0    88.2    94.1    4.66    2.01    207.8     9.8    54.0    40.2    3.34    1.31     1.7    1.2    2.7    6.57    3.27
 1997 284   109   107   202.7    91.5    93.5    4.68    1.99    210.4    10.0    53.5    40.0    3.31    1.30     1.7    1.2    2.6    6.66    3.32
 1997 285   110   108   205.2    94.8    92.8    4.70    1.97    212.9    10.1    53.0    39.8    3.28    1.29     1.7    1.2    2.4    6.76    3.36
 1997 286   111   109   207.9    98.0    92.3    4.71    1.95    215.6    10.2    52.6    39.7    3.25    1.28     1.6    1.2    2.7    6.85    3.40
 1997 287   112   110   209.4   101.6    90.7    4.74    1.92    216.8    10.5    51.7    39.0    3.21    1.25     1.6    1.1    1.2    6.94    3.44
 1997 288   113   111   212.2   104.8    90.1    4.74    1.90    219.1    11.0    51.3    38.8    3.18    1.24     1.6    1.1    2.3    7.03    3.48
 1997 289   114   112   215.1   107.7    90.2    4.74    1.89    221.8    11.2    51.1    39.1    3.17    1.24     1.6    1.1    2.7    7.11    3.52
 1997 290   115   113   216.5   111.1    88.7    4.76    1.86    223.1    11.4    50.3    38.4    3.13    1.21     1.5    1.1    1.3    7.19    3.56
 1997 291   116   114   218.1   114.3    87.3    4.78    1.83    224.3    11.8    49.6    37.7    3.09    1.19     1.5    1.1    1.2    7.27    3.60
 1997 292   117   115   219.8   117.8    86.0    4.80    1.80    225.9    12.0    48.9    37.1    3.05    1.17     1.5    1.1    1.6    7.34    3.63
 1997 293   118   116   221.4   121.0    84.7    4.82    1.77    227.2    12.3    48.2    36.5    3.02    1.15     1.4    1.1    1.3    7.41    3.67
 1997 294   119   117   223.1   124.2    83.6    4.83    1.75    228.6    12.5    47.6    36.0    2.99    1.13     1.4    1.0    1.5    7.47    3.70
 1997 295   120   118   225.8   127.1    83.5    4.84    1.74    231.4    12.6    47.4    36.1    2.98    1.13     1.4    1.0    2.7    7.53    3.74
 1997 296   121   119   228.7   129.9    83.6    4.84    1.74    233.9    13.0    47.3    36.3    2.96    1.13     1.4    1.0    2.5    7.59    3.77
 1997 297   122   120   231.4   132.6    83.6    4.85    1.73    236.3    13.3    47.1    36.5    2.95    1.13     1.4    1.0    2.4    7.64    3.81
 1997 298   123   121   231.6   134.1    82.6    4.83    1.68    236.3    13.5    46.6    36.0    2.90    1.09     1.4    1.0    0.0    7.70    3.84

*DSSAT Cropping System Model Ver. 4.5.1.023 -Stub         DEC 04, 2014; 01:35:35
                                                                                
*RUN   5        : 97 DATE3 CHINESE          CRGRO045 GHNY9701    5              
 MODEL          : CRGRO045 - Peanut                                             
 EXPERIMENT     : GHNY9701 PN 1997 VARIETY X PLANTING DATE EXPERIMENT           
 DATA PATH      :                                                               
 TREATMENT  5   : 97 DATE3 CHINESE          CRGRO045                            
  
@YEAR DOY   DAS   DAP    CNAD    GNAD    VNAD    GN%D    VN%D     NFXC    NUPC    LNAD    SNAD    LN%D    SN%D    SHND   RN%D   NFXD   SNN0C   SNN1C
 1997 205     2     0     0.0     0.0     0.0    0.00    0.00      0.0     0.0     0.0     0.0    0.00    0.00     0.0    0.0    0.0    0.00    0.00
 1997 206     3     1     0.0     0.0     0.0    0.00    0.00      0.0     0.0     0.0     0.0    0.00    0.00     0.0    0.0    0.0    0.00    0.00
 1997 207     4     2     0.0     0.0     0.0    0.00    0.00      0.0     0.0     0.0     0.0    0.00    0.00     0.0    0.0    0.0    0.00    0.00
 1997 208     5     3     0.0     0.0     0.0    0.00    0.00      0.0     0.0     0.0     0.0    0.00    0.00     0.0    0.0    0.0    0.00    0.00
 1997 209     6     4     0.0     0.0     0.0    0.00    0.00      0.0     0.0     0.0     0.0    0.00    0.00     0.0    0.0    0.0    0.00    0.00
 1997 210     7     5     0.0     0.0     0.0    0.00    0.00      0.0     0.0     0.0     0.0    0.00    0.00     0.0    0.0    0.0    0.00    0.00
 1997 211     8     6     0.0     0.0     0.0    0.00    0.00      0.0     0.0     0.0     0.0    0.00    0.00     0.0    0.0    0.0    0.00    0.00
 1997 212     9     7     0.5     0.0     0.5    0.00    4.84      0.1     0.0     0.5     0.1    5.36    2.56     0.0    2.3    0.0    0.00    0.00
 1997 213    10     8     0.5     0.0     0.5    0.00    4.81      0.1     0.0     0.5     0.1    5.31    2.52     0.0    2.2    0.0    0.00    0.01
 1997 214    11     9     0.6     0.0     0.6    0.00    4.82      0.1     0.0     0.6     0.1    5.30    2.50     0.0    2.2    0.1    0.00    0.01
 1997 215    12    10     0.7     0.0     0.7    0.00    4.82      0.2     0.0     0.6     0.1    5.28    2.48     0.0    2.2    0.1    0.00    0.01
 1997 216    13    11     0.8     0.0     0.8    0.00    4.81      0.3     0.0     0.7     0.1    5.25    2.46     0.0    2.2    0.1    0.00    0.02
 1997 217    14    12     0.9     0.0     0.9    0.00    4.66      0.4     0.0     0.8     0.1    5.08    2.35     0.0    2.1    0.1    0.00    0.02
 1997 218    15    13     1.0     0.0     1.0    0.00    4.67      0.4     0.0     0.9     0.1    5.07    2.35     0.0    2.1    0.1    0.00    0.02
 1997 219    16    14     1.1     0.0     1.1    0.00    4.49      0.5     0.0     1.0     0.1    4.93    2.20     0.0    2.0    0.1    0.01    0.02
 1997 220    17    15     1.2     0.0     1.2    0.00    4.18      0.7     0.0     1.1     0.1    4.62    2.04     0.0    1.9    0.1    0.01    0.02
 1997 221    18    16     1.3     0.0     1.3    0.00    4.05      0.8     0.0     1.2     0.1    4.55    1.96     0.0    1.9    0.1    0.01    0.03
 1997 222    19    17     1.4     0.0     1.4    0.00    3.89      1.0     0.0     1.3     0.2    4.47    1.88     0.0    1.8    0.2    0.01    0.03
 1997 223    20    18     1.6     0.0     1.6    0.00    3.74      1.2     0.0     1.3     0.2    4.41    1.90     0.0    1.8    0.2    0.01    0.03
 1997 224    21    19     1.8     0.0     1.8    0.00    3.69      1.5     0.0     1.5     0.3    4.38    1.92     0.0    1.8    0.2    0.01    0.04
 1997 225    22    20     2.0     0.0     2.0    0.00    3.66      1.8     0.0     1.7     0.3    4.38    1.95     0.0    1.8    0.3    0.02    0.04
 1997 226    23    21     2.3     0.0     2.3    0.00    3.66      2.2     0.0     1.9     0.4    4.41    2.00     0.0    1.8    0.3    0.02    0.05
 1997 227    24    22     2.5     0.0     2.5    0.00    3.69      2.5     0.0     2.1     0.5    4.46    2.05     0.0    1.8    0.3    0.02    0.05
 1997 228    25    23     2.9     0.0     2.9    0.00    3.61      2.9     0.0     2.3     0.5    4.41    2.03     0.0    1.7    0.4    0.03    0.06
 1997 229    26    24     3.3     0.0     3.3    0.00    3.64      3.4     0.0     2.6     0.7    4.47    2.08     0.0    1.8    0.4    0.03    0.06
 1997 230    27    25     3.7     0.0     3.7    0.00    3.56      3.9     0.0     2.9     0.8    4.42    2.06     0.0    1.7    0.5    0.03    0.07
 1997 231    28    26     4.2     0.0     4.2    0.00    3.52      4.6     0.0     3.2     0.9    4.41    2.06     0.0    1.7    0.5    0.04    0.07
 1997 232    29    27     4.8     0.0     4.8    0.00    3.52      5.3     0.0     3.7     1.1    4.44    2.08     0.0    1.7    0.6    0.04    0.08
 1997 233    30    28     5.3     0.0     5.3    0.00    3.52      6.2     0.0     4.1     1.3    4.46    2.09     0.0    1.8    0.7    0.05    0.09
 1997 234    31    29     6.1     0.0     6.1    0.00    3.55      7.0     0.0     4.6     1.5    4.53    2.13     0.0    1.8    0.8    0.05    0.09
 1997 235    32    30     6.6     0.0     6.6    0.00    3.56      7.5     0.0     4.9     1.6    4.55    2.15     0.0    1.8    0.5    0.06    0.10
 1997 236    33    31     7.4     0.0     7.4    0.00    3.54      8.5     0.0     5.5     1.9    4.57    2.15     0.0    1.8    0.9    0.07    0.11
 1997 237    34    32     8.2     0.0     8.2    0.00    3.51      9.7     0.0     6.1     2.1    4.56    2.13     0.0    1.8    1.0    0.07    0.12
 1997 238    35    33     9.3     0.0     9.3    0.00    3.53     10.8     0.0     6.8     2.5    4.60    2.16     0.0    1.8    1.2    0.08    0.13
 1997 239    36    34    10.3     0.0    10.3    0.00    3.50     12.2     0.0     7.5     2.8    4.59    2.14     2.8    1.8    1.2    0.09    0.14
 1997 240    37    35    11.3     0.0    11.3    0.00    3.51     13.2     0.0     8.2     3.1    4.62    2.15     2.8    1.8    1.1    0.10    0.15
 1997 241    38    36    12.4     0.0    12.4    0.00    3.47     14.8     0.1     8.9     3.5    4.60    2.13     2.8    1.8    1.3    0.12    0.17
 1997 242    39    37    13.9     0.0    13.8    0.00    3.45     16.5     0.1     9.9     4.0    4.60    2.13     2.8    1.8    1.5    0.13    0.18
 1997 243    40    38    15.4     0.0    15.4    0.00    3.45     18.3     0.2    10.9     4.5    4.62    2.13     2.8    1.8    1.7    0.14    0.20
 1997 244    41    39    17.2     0.0    17.1    0.00    3.45     20.1     0.3    12.1     5.0    4.65    2.14     2.8    1.9    1.8    0.16    0.22
 1997 245    42    40    19.0     0.0    18.8    0.00    3.44     22.0     0.5    13.2     5.6    4.65    2.14     2.8    1.9    1.8    0.18    0.23
 1997 246    43    41    20.5     0.0    20.3    0.00    3.43     23.5     0.6    14.1     6.1    4.66    2.13     2.8    1.9    1.5    0.20    0.25
 1997 247    44    42    22.1     0.0    21.8    0.00    3.42     25.1     0.8    15.1     6.6    4.66    2.13     2.8    1.9    1.6    0.22    0.28
 1997 248    45    43    24.0     0.0    23.5    0.00    3.37     27.4     0.9    16.2     7.2    4.61    2.09     2.8    1.8    1.9    0.26    0.30
 1997 249    46    44    26.0     0.0    25.3    0.00    3.36     29.4     1.0    17.4     7.9    4.63    2.10     2.8    1.8    2.1    0.31    0.32
 1997 250    47    45    28.1     0.0    27.3    0.00    3.34     31.8     1.2    18.7     8.6    4.62    2.08     2.7    1.8    2.2    0.37    0.34
 1997 251    48    46    30.3     0.0    29.3    4.50    3.29     34.5     1.3    19.9     9.4    4.58    2.06     2.7    1.8    2.4    0.43    0.37
 1997 252    49    47    32.3     0.0    31.0    4.52    3.28     36.6     1.3    21.0    10.0    4.58    2.05     2.7    1.8    2.1    0.49    0.40
 1997 253    50    48    34.7     0.1    33.0    4.46    3.26     39.2     1.4    22.3    10.7    4.58    2.04     2.7    1.8    2.6    0.53    0.42
 1997 254    51    49    37.1     0.2    35.0    4.40    3.24     41.8     1.5    23.5    11.5    4.57    2.03     2.7    1.8    2.5    0.57    0.45
 1997 255    52    50    39.7     0.4    37.0    4.43    3.20     44.7     1.5    24.7    12.3    4.54    2.01     2.7    1.8    2.7    0.61    0.48
 1997 256    53    51    42.5     0.6    39.2    4.50    3.18     47.8     1.6    26.1    13.1    4.52    2.00     2.7    1.8    3.0    0.66    0.52
 1997 257    54    52    45.2     0.8    41.2    4.44    3.16     50.7     1.7    27.3    13.9    4.51    1.99     2.7    1.8    2.8    0.71    0.55
 1997 258    55    53    48.1     1.1    43.4    4.47    3.13     53.9     1.7    28.6    14.8    4.49    1.97     2.6    1.8    3.1    0.76    0.58
 1997 259    56    54    51.1     1.4    45.6    4.44    3.11     57.0     1.8    29.9    15.7    4.48    1.96     2.6    1.8    3.2    0.82    0.61
 1997 260    57    55    54.2     1.8    47.8    4.44    3.09     60.2     1.9    31.2    16.5    4.47    1.95     2.6    1.8    3.2    0.88    0.65
 1997 261    58    56    55.6     2.3    48.2    4.39    3.05     61.7     2.0    31.5    16.7    4.42    1.93     2.6    1.8    1.5    0.94    0.68
 1997 262    59    57    58.4     2.8    49.9    4.39    3.03     64.6     2.0    32.4    17.4    4.41    1.91     2.6    1.8    2.9    1.01    0.72
 1997 263    60    58    60.9     3.4    51.2    4.42    3.00     67.2     2.1    33.2    18.0    4.39    1.90     2.6    1.7    2.6    1.08    0.76
 1997 264    61    59    64.0     4.1    53.0    4.46    2.98     70.5     2.2    34.2    18.8    4.37    1.89     2.6    1.7    3.2    1.14    0.80
 1997 265    62    60    67.1     4.9    54.6    4.49    2.96     73.6     2.3    35.1    19.5    4.35    1.88     2.5    1.7    3.1    1.22    0.84
 1997 266    63    61    68.1     5.7    54.2    4.44    2.92     74.6     2.4    34.8    19.3    4.31    1.85     2.5    1.7    1.0    1.30    0.88
 1997 267    64    62    71.2     6.7    55.6    4.45    2.90     77.7     2.5    35.6    20.0    4.30    1.84     2.5    1.7    3.1    1.38    0.92
 1997 268    65    63    72.5     7.8    55.2    4.42    2.87     79.0     2.7    35.3    19.9    4.26    1.81     2.5    1.7    1.2    1.46    0.96
 1997 269    66    64    75.2     8.9    56.1    4.44    2.85     81.7     2.7    35.8    20.3    4.24    1.80     2.5    1.7    2.7    1.54    1.00
 1997 270    67    65    78.3    10.2    57.4    4.47    2.83     85.1     2.8    36.5    20.9    4.22    1.80     2.5    1.6    3.3    1.63    1.04
[...]
 1997 297    94    92   140.0    82.5    46.9    5.02    1.85    144.1     7.1    28.8    18.1    3.08    1.13     1.5    1.1    2.2    3.93    1.96
 1997 298    95    93   142.5    85.6    46.4    5.04    1.82    146.4     7.3    28.5    17.9    3.04    1.11     1.5    1.1    2.3    3.99    1.98
 1997 299    96    94   145.0    88.3    46.2    5.05    1.81    148.8     7.4    28.3    17.9    3.02    1.11     1.5    1.1    2.4    4.03    2.01
 1997 300    97    95   147.3    90.9    46.0    5.04    1.79    150.9     7.7    28.1    17.9    3.00    1.10     1.5    1.1    2.1    4.09    2.03
 1997 301    98    96   149.7    93.4    45.9    5.05    1.78    153.2     7.8    28.0    18.0    2.98    1.10     1.5    1.1    2.3    4.15    2.06
 1997 302    99    97   152.1    95.9    45.9    5.05    1.77    155.4     8.0    27.8    18.1    2.96    1.09     1.4    1.0    2.2    4.19    2.08
 1997 303   100    98   154.4    98.2    45.9    5.05    1.76    157.6     8.1    27.7    18.2    2.95    1.09     1.4    1.0    2.2    4.23    2.10
 1997 304   101    99   156.4   100.2    46.0    5.04    1.76    159.5     8.3    27.7    18.4    2.94    1.10     1.4    1.0    1.8    4.26    2.13
 1997 305   102   100   156.5   101.1    45.4    5.00    1.69    159.5     8.5    27.3    18.1    2.87    1.05     1.4    1.0    0.0    4.30    2.15

*DSSAT Cropping System Model Ver. 4.5.1.023 -Stub         DEC 04, 2014; 01:35:35
                                                                                
*RUN   6        : 97 DATE3 F-MIX            CRGRO045 GHNY9701    6              
 MODEL          : CRGRO045 - Peanut                                             
 EXPERIMENT     : GHNY9701 PN 1997 VARIETY X PLANTING DATE EXPERIMENT           
 DATA PATH      :                                                               
 TREATMENT  6   : 97 DATE3 F-MIX            CRGRO045                            
  
@YEAR DOY   DAS   DAP    CNAD    GNAD    VNAD    GN%D    VN%D     NFXC    NUPC    LNAD    SNAD    LN%D    SN%D    SHND   RN%D   NFXD   SNN0C   SNN1C
 1997 205     2     0     0.0     0.0     0.0    0.00    0.00      0.0     0.0     0.0     0.0    0.00    0.00     0.0    0.0    0.0    0.00    0.00
 1997 206     3     1     0.0     0.0     0.0    0.00    0.00      0.0     0.0     0.0     0.0    0.00    0.00     0.0    0.0    0.0    0.00    0.00
 1997 207     4     2     0.0     0.0     0.0    0.00    0.00      0.0     0.0     0.0     0.0    0.00    0.00     0.0    0.0    0.0    0.00    0.00
 1997 208     5     3     0.0     0.0     0.0    0.00    0.00      0.0     0.0     0.0     0.0    0.00    0.00     0.0    0.0    0.0    0.00    0.00
 1997 209     6     4     0.0     0.0     0.0    0.00    0.00      0.0     0.0     0.0     0.0    0.00    0.00     0.0    0.0    0.0    0.00    0.00
 1997 210     7     5     0.0     0.0     0.0    0.00    0.00      0.0     0.0     0.0     0.0    0.00    0.00     0.0    0.0    0.0    0.00    0.00
 1997 211     8     6     0.0     0.0     0.0    0.00    0.00      0.0     0.0     0.0     0.0    0.00    0.00     0.0    0.0    0.0    0.00    0.00
 1997 212     9     7     0.0     0.0     0.0    0.00    0.00      0.0     0.0     0.0     0.0    0.00    0.00     0.0    0.0    0.0    0.00    0.00
 1997 213    10     8     0.6     0.0     0.6    0.00    4.84      0.1     0.0     0.6     0.1    5.36    2.56     0.0    2.3    0.0    0.00    0.01
 1997 214    11     9     0.7     0.0     0.7    0.00    4.80      0.1     0.0     0.6     0.1    5.31    2.53     0.0    2.2    0.0    0.00    0.01
 1997 215    12    10     0.8     0.0     0.8    0.00    4.77      0.2     0.0     0.7     0.1    5.29    2.51     0.0    2.2    0.0    0.00    0.01
 1997 216    13    11     0.9     0.0     0.9    0.00    4.77      0.2     0.0     0.8     0.1    5.26    2.48     0.0    2.2    0.1    0.00    0.01
 1997 217    14    12     1.0     0.0     1.0    0.00    4.71      0.3     0.0     0.9     0.1    5.17    2.44     0.0    2.1    0.1    0.00    0.02
 1997 218    15    13     1.1     0.0     1.1    0.00    4.71      0.4     0.0     1.0     0.1    5.16    2.42     0.0    2.1    0.1    0.00    0.02
 1997 219    16    14     1.2     0.0     1.2    0.00    4.55      0.5     0.0     1.1     0.1    5.03    2.33     0.0    2.1    0.1    0.01    0.02
 1997 220    17    15     1.3     0.0     1.3    0.00    4.34      0.6     0.0     1.2     0.1    4.88    2.17     0.0    2.0    0.1    0.01    0.02
 1997 221    18    16     1.4     0.0     1.4    0.00    4.20      0.8     0.0     1.2     0.2    4.79    2.13     0.0    1.9    0.1    0.01    0.03
 1997 222    19    17     1.5     0.0     1.5    0.00    4.03      1.0     0.0     1.3     0.2    4.70    2.02     0.0    1.9    0.2    0.01    0.03
 1997 223    20    18     1.7     0.0     1.7    0.00    3.90      1.2     0.0     1.4     0.3    4.65    2.03     0.0    1.8    0.2    0.01    0.04
 1997 224    21    19     1.9     0.0     1.9    0.00    3.85      1.5     0.0     1.5     0.3    4.67    2.13     0.0    1.9    0.2    0.02    0.04
 1997 225    22    20     2.1     0.0     2.1    0.00    3.78      1.7     0.0     1.7     0.4    4.60    2.10     0.0    1.8    0.2    0.02    0.05
 1997 226    23    21     2.3     0.0     2.3    0.00    3.74      2.1     0.0     1.9     0.4    4.58    2.10     0.0    1.8    0.3    0.02    0.05
 1997 227    24    22     2.6     0.0     2.6    0.00    3.76      2.4     0.0     2.1     0.5    4.62    2.13     0.0    1.8    0.3    0.02    0.06
 1997 228    25    23     2.9     0.0     2.9    0.00    3.67      2.8     0.0     2.3     0.6    4.54    2.09     0.0    1.8    0.3    0.03    0.06
 1997 229    26    24     3.3     0.0     3.3    0.00    3.69      3.2     0.0     2.6     0.7    4.58    2.12     0.0    1.8    0.4    0.03    0.07
 1997 230    27    25     3.7     0.0     3.7    0.00    3.61      3.8     0.0     2.9     0.8    4.51    2.09     0.0    1.8    0.4    0.03    0.08
 1997 231    28    26     4.2     0.0     4.2    0.00    3.55      4.4     0.0     3.2     0.9    4.47    2.07     0.0    1.8    0.5    0.04    0.08
 1997 232    29    27     4.7     0.0     4.7    0.00    3.54      5.1     0.0     3.6     1.1    4.49    2.09     0.0    1.8    0.6    0.04    0.09
 1997 233    30    28     5.4     0.0     5.4    0.00    3.51      6.0     0.0     4.1     1.3    4.48    2.09     0.0    1.8    0.7    0.05    0.10
 1997 234    31    29     6.1     0.0     6.1    0.00    3.54      6.8     0.0     4.6     1.5    4.54    2.13     0.0    1.8    0.8    0.05    0.11
 1997 235    32    30     6.6     0.0     6.6    0.00    3.55      7.4     0.0     4.9     1.7    4.57    2.14     0.0    1.8    0.5    0.06    0.11
 1997 236    33    31     7.4     0.0     7.4    0.00    3.52      8.3     0.0     5.5     1.9    4.56    2.14     0.0    1.8    0.9    0.07    0.12
 1997 237    34    32     8.3     0.0     8.3    0.00    3.48      9.5     0.0     6.1     2.2    4.54    2.12     0.0    1.8    1.0    0.07    0.13
 1997 238    35    33     9.4     0.0     9.4    0.00    3.51     10.8     0.0     6.8     2.5    4.59    2.15     0.0    1.8    1.2    0.08    0.14
 1997 239    36    34    10.5     0.0    10.5    0.00    3.48     12.1     0.0     7.6     2.9    4.58    2.14     0.0    1.8    1.2    0.09    0.16
 1997 240    37    35    11.5     0.0    11.5    0.00    3.50     13.2     0.0     8.3     3.2    4.62    2.16     0.0    1.8    1.1    0.10    0.17
 1997 241    38    36    12.7     0.0    12.7    0.00    3.48     14.9     0.1     9.1     3.6    4.61    2.15     0.0    1.8    1.4    0.12    0.18
 1997 242    39    37    14.3     0.0    14.3    0.00    3.47     16.7     0.1    10.1     4.1    4.62    2.15     0.0    1.8    1.6    0.13    0.19
 1997 243    40    38    15.9     0.0    15.9    0.00    3.47     18.6     0.2    11.2     4.7    4.65    2.16     0.0    1.8    1.8    0.14    0.21
 1997 244    41    39    17.8     0.0    17.8    0.00    3.48     20.5     0.3    12.5     5.3    4.68    2.17     2.8    1.8    1.9    0.16    0.23
 1997 245    42    40    19.7     0.0    19.7    0.00    3.47     22.6     0.5    13.8     5.9    4.68    2.16     2.8    1.8    1.9    0.18    0.25
 1997 246    43    41    21.3     0.0    21.3    0.00    3.47     24.2     0.6    14.9     6.5    4.70    2.16     2.8    1.8    1.7    0.20    0.27
 1997 247    44    42    23.1     0.0    23.1    0.00    3.46     26.0     0.8    16.0     7.1    4.71    2.17     2.8    1.8    1.8    0.23    0.29
 1997 248    45    43    25.1     0.0    25.1    0.00    3.40     28.5     0.9    17.3     7.8    4.65    2.13     2.8    1.8    2.0    0.25    0.31
 1997 249    46    44    27.4     0.0    27.4    0.00    3.40     30.8     1.1    18.8     8.6    4.67    2.13     2.8    1.8    2.4    0.28    0.33
 1997 250    47    45    29.8     0.0    29.6    0.00    3.38     33.6     1.2    20.3     9.4    4.66    2.12     2.8    1.8    2.4    0.35    0.36
 1997 251    48    46    32.3     0.0    32.2    0.00    3.34     36.7     1.3    21.9    10.3    4.63    2.10     2.8    1.8    2.7    0.41    0.38
 1997 252    49    47    34.6     0.0    34.4    0.00    3.34     39.2     1.3    23.3    11.1    4.64    2.10     2.8    1.8    2.5    0.49    0.41
 1997 253    50    48    37.5     0.0    37.1    0.00    3.34     42.3     1.4    25.0    12.1    4.66    2.10     2.8    1.8    3.1    0.57    0.44
 1997 254    51    49    40.4     0.0    39.9    0.00    3.33     45.4     1.5    26.8    13.1    4.67    2.10     2.8    1.8    3.1    0.64    0.47
 1997 255    52    50    43.3     0.0    42.7    4.47    3.29     49.1     1.6    28.5    14.2    4.64    2.08     2.7    1.8    3.1    0.70    0.50
 1997 256    53    51    46.7     0.0    45.9    4.57    3.28     52.9     1.6    30.5    15.4    4.64    2.07     2.7    1.8    3.6    0.74    0.54
 1997 257    54    52    50.0     0.1    49.0    4.41    3.27     56.4     1.7    32.4    16.6    4.64    2.07     2.7    1.8    3.6    0.80    0.57
 1997 258    55    53    53.6     0.1    52.3    4.48    3.25     60.4     1.7    34.5    17.8    4.63    2.06     2.7    1.8    3.8    0.85    0.61
 1997 259    56    54    57.3     0.2    55.7    4.43    3.24     64.4     1.8    36.6    19.1    4.63    2.06     2.7    1.8    4.0    0.91    0.65
 1997 260    57    55    61.1     0.3    59.1    4.43    3.23     68.5     1.9    38.6    20.5    4.63    2.05     2.7    1.8    4.0    0.98    0.69
 1997 261    58    56    63.1     0.4    60.7    4.34    3.20     70.6     2.0    39.6    21.1    4.61    2.03     2.7    1.8    2.1    1.05    0.73
 1997 262    59    57    66.6     0.6    63.6    4.36    3.19     74.3     2.1    41.4    22.3    4.60    2.03     2.7    1.8    3.7    1.12    0.77
 1997 263    60    58    69.8     0.8    66.2    4.41    3.17     77.6     2.1    42.9    23.3    4.59    2.02     2.7    1.8    3.3    1.19    0.82
 1997 264    61    59    73.6     1.0    69.5    4.46    3.15     81.9     2.3    44.8    24.6    4.58    2.01     2.6    1.8    4.1    1.27    0.87
 1997 265    62    60    77.5     1.3    72.6    4.51    3.13     85.9     2.4    46.7    25.9    4.57    2.00     2.6    1.8    4.0    1.35    0.92
 1997 266    63    61    78.8     1.7    73.2    4.44    3.10     87.3     2.5    47.0    26.2    4.53    1.97     2.6    1.8    1.4    1.44    0.96
 1997 267    64    62    82.7     2.1    76.2    4.45    3.08     91.3     2.7    48.7    27.5    4.52    1.97     2.6    1.8    4.0    1.53    1.01
 1997 268    65    63    84.5     2.5    77.0    4.41    3.05     93.2     2.7    49.2    27.8    4.49    1.95     2.6    1.8    1.9    1.62    1.06
 1997 269    66    64    87.8     3.0    79.3    4.43    3.03     96.6     2.8    50.5    28.8    4.47    1.93     2.6    1.8    3.4    1.71    1.11
 1997 270    67    65    91.7     3.6    82.3    4.48    3.01    100.8     2.9    52.2    30.1    4.46    1.93     2.6    1.8    4.2    1.81    1.17
 1997 271    68    66    95.7     4.2    85.1    4.46    2.99    105.1     2.9    53.8    31.4    4.45    1.92     2.5    1.8    4.3    1.91    1.21
 1997 272    69    67    99.5     4.9    87.8    4.49    2.97    109.2     2.9    55.2    32.6    4.43    1.91     2.5    1.8    4.1    2.02    1.27
 1997 273    70    68   103.1     5.7    90.0    4.50    2.95    112.9     3.0    56.4    33.6    4.41    1.89     2.5    1.7    3.7    2.13    1.33
 1997 274    71    69   106.7     6.5    92.3    4.53    2.93    116.7     3.1    57.7    34.6    4.40    1.88     2.5    1.7    3.8    2.24    1.39
 1997 275    72    70   110.5     7.4    94.8    4.56    2.91    120.6     3.3    59.0    35.8    4.38    1.87     2.5    1.7    3.9    2.36    1.45
 1997 276    73    71   113.4     8.3    96.2    4.50    2.88    123.5     3.5    59.7    36.5    4.35    1.85     2.5    1.7    2.9    2.49    1.50
 1997 277    74    72   116.8     9.4    97.9    4.49    2.86    126.7     3.9    60.6    37.3    4.33    1.84     2.4    1.7    3.2    2.61    1.56
 1997 278    75    73   117.8    10.5    97.2    4.47    2.82    127.7     4.0    60.2    37.1    4.28    1.81     2.4    1.7    1.0    2.73    1.61
 1997 279    76    74   121.4    11.7    99.2    4.47    2.80    131.5     4.1    61.1    38.0    4.27    1.80     2.4    1.7    3.8    2.85    1.67
 1997 280    77    75   124.9    13.0   100.8    4.45    2.77    135.2     4.1    61.9    38.9    4.24    1.79     2.4    1.7    3.7    2.98    1.72
 1997 281    78    76   125.6    14.3    99.6    4.46    2.73    135.9     4.2    61.2    38.4    4.20    1.76     2.4    1.6    0.7    3.11    1.78
 1997 282    79    77   128.7    15.8   100.7    4.48    2.71    139.0     4.3    61.7    39.0    4.17    1.74     2.4    1.6    3.1    3.24    1.85
 1997 283    80    78   131.8    17.3   101.8    4.50    2.69    142.3     4.3    62.2    39.6    4.15    1.73     2.3    1.6    3.3    3.38    1.91
 1997 284    81    79   134.9    18.9   102.9    4.51    2.66    145.5     4.5    62.7    40.2    4.12    1.72     2.3    1.6    3.2    3.51    1.97
 1997 285    82    80   137.8    20.6   103.7    4.53    2.64    148.4     4.6    63.0    40.7    4.10    1.70     2.3    1.6    3.0    3.64    2.03
 1997 286    83    81   141.0    22.3   104.7    4.54    2.62    151.6     4.8    63.4    41.3    4.07    1.69     2.3    1.6    3.1    3.78    2.09
 1997 287    84    82   142.7    24.2   104.0    4.54    2.59    153.2     5.0    62.9    41.1    4.04    1.67     2.3    1.5    1.6    3.91    2.15
 1997 288    85    83   145.9    26.2   104.8    4.53    2.56    156.1     5.5    63.2    41.6    4.01    1.66     2.2    1.5    2.9    4.05    2.21
 1997 289    86    84   149.2    28.2   105.7    4.53    2.54    159.4     5.8    63.5    42.2    3.99    1.64     2.2    1.5    3.3    4.19    2.26
 1997 290    87    85   150.7    30.4   104.7    4.54    2.51    160.8     5.9    62.8    41.8    3.95    1.62     2.2    1.5    1.4    4.33    2.32
 1997 291    88    86   152.3    32.6   103.7    4.55    2.48    162.1     6.3    62.2    41.5    3.91    1.60     2.2    1.5    1.3    4.46    2.38
 1997 292    89    87   154.1    35.0   102.7    4.53    2.45    163.5     6.7    61.6    41.2    3.88    1.58     2.2    1.5    1.4    4.59    2.43
 1997 293    90    88   155.7    37.4   101.7    4.54    2.42    165.0     6.9    60.9    40.8    3.84    1.56     2.1    1.4    1.5    4.73    2.49
 1997 294    91    89   157.2    39.9   100.6    4.54    2.40    166.4     7.0    60.2    40.4    3.81    1.54     2.1    1.4    1.4    4.86    2.54
 1997 295    92    90   160.2    42.5   100.8    4.54    2.38    169.4     7.2    60.1    40.7    3.78    1.53     2.1    1.4    3.0    4.97    2.59
 1997 296    93    91   163.3    45.0   101.1    4.54    2.36    172.3     7.6    60.1    41.0    3.76    1.52     2.1    1.4    2.9    5.11    2.65
 1997 297    94    92   166.2    47.6   101.2    4.55    2.34    175.0     7.9    59.9    41.3    3.74    1.51     2.0    1.4    2.8    5.24    2.70
 1997 298    95    93   169.1    50.2   101.2    4.55    2.32    177.8     8.1    59.8    41.4    3.71    1.50     2.0    1.4    2.7    5.36    2.75
 1997 299    96    94   172.2    52.9   101.5    4.55    2.30    180.8     8.3    59.7    41.8    3.69    1.50     2.0    1.4    3.0    5.48    2.80
 1997 300    97    95   174.9    55.6   101.3    4.55    2.28    183.3     8.6    59.5    41.8    3.67    1.49     2.0    1.3    2.6    5.60    2.85
 1997 301    98    96   177.9    58.4   101.3    4.55    2.26    186.2     8.8    59.3    42.0    3.64    1.48     2.0    1.3    2.9    5.73    2.90
 1997 302    99    97   180.8    61.3   101.2    4.56    2.25    189.1     9.0    59.0    42.2    3.62    1.47     1.9    1.3    2.9    5.85    2.95
 1997 303   100    98   183.6    64.1   101.1    4.56    2.23    191.8     9.2    58.8    42.3    3.60    1.46     1.9    1.3    2.7    5.97    3.00
 1997 304   101    99   185.7    67.0   100.2    4.56    2.20    193.9     9.3    58.2    42.0    3.57    1.44     1.9    1.3    2.1    6.09    3.05
 1997 305   102   100   188.5    69.9   100.1    4.56    2.19    196.7     9.5    57.9    42.1    3.54    1.43     1.9    1.3    2.8    6.21    3.10
 1997 306   103   101   190.5    72.7    99.2    4.56    2.16    198.6     9.6    57.4    41.8    3.51    1.42     1.8    1.3    1.9    6.32    3.14
 1997 307   104   102   193.4    75.6    99.1    4.56    2.15    201.4     9.8    57.1    42.0    3.49    1.41     1.8    1.3    2.8    6.46    3.19
 1997 308   105   103   196.2    78.5    99.0    4.57    2.13    204.3     9.9    56.9    42.1    3.47    1.40     1.8    1.2    2.8    6.57    3.25
 1997 309   106   104   198.5    81.3    98.4    4.57    2.11    206.8     9.9    56.4    42.0    3.45    1.39     1.8    1.3    2.6    6.68    3.31
 1997 310   107   105   198.5    82.7    97.3    4.57    2.10    206.8     9.9    55.8    41.5    3.43    1.38     1.8    1.3    0.0    6.75    3.56
 1997 311   108   106   198.5    83.8    96.5    4.58    2.09    206.8     9.9    55.4    41.1    3.42    1.38     1.7    1.3    0.0    6.80    3.80
 1997 312   109   107   198.5    84.6    95.9    4.58    2.09    206.8     9.9    55.0    40.8    3.41    1.37     1.7    1.2    0.0    6.84    4.03
 1997 313   110   108   198.5    85.1    95.5    4.58    2.09    206.8     9.9    54.8    40.6    3.41    1.37     1.7    1.2    0.0    6.87    4.26
 1997 314   111   109   197.7    85.3    94.5    4.58    2.09    206.8     9.9    54.0    40.5    3.41    1.37     1.7    1.2    0.0    7.68    4.48
 1997 315   112   110   196.8    85.5    93.5    4.58    2.08    206.8     9.9    53.1    40.4    3.41    1.38     1.7    1.2    0.0    8.52    4.69
 1997 316   113   111   196.0    85.5    92.7    4.58    2.08    206.8     9.9    52.4    40.3    3.42    1.38     1.7    1.2    0.0    9.36    4.90
 1997 317   114   112   195.1    85.5    91.8    4.58    2.08    206.8     9.9    51.6    40.2    3.43    1.39     1.7    1.2    0.0   10.25    5.10
 1997 318   115   113   194.2    85.5    90.9    4.58    2.08    206.8     9.9    50.7    40.2    3.43    1.39     1.7    1.2    0.0   11.18    5.29
 1997 319   116   114   193.2    85.5    89.9    4.58    2.08    206.8     9.9    49.9    40.1    3.44    1.40     1.7    1.2    0.0   12.10    5.48
 1997 320   117   115   192.3    85.5    89.0    4.58    2.08    206.8     9.9    49.0    40.0    3.44    1.40     1.7    1.2    0.0   13.03    5.66
 1997 321   118   116   191.4    85.5    88.1    4.58    2.08    206.8     9.9    48.2    39.9    3.45    1.40     1.7    1.2    0.0   13.95    5.83
 1997 322   119   117   190.5    85.5    87.2    4.58    2.08    206.8     9.9    47.3    39.9    3.46    1.41     1.7    1.2    0.0   14.87    6.00
 1997 323   120   118   189.6    85.5    86.3    4.58    2.07    206.8     9.9    46.5    39.8    3.46    1.41     1.7    1.2    0.0   15.78    6.17
 1997 324   121   119   188.7    85.5    85.4    4.58    2.07    206.8     9.9    45.6    39.7    3.47    1.42     1.7    1.2    0.0   16.67    6.33
