*PLANT C OUTPUT FILE

*DSSAT Cropping System Model Ver. 4.5.1.023 -Stub         DEC 04, 2014; 01:35:34
                                                                                
*RUN   1        : 97 DATE1 CHINESE          CRGRO045 GHNY9701    1              
 MODEL          : CRGRO045 - Peanut                                             
 EXPERIMENT     : GHNY9701 PN 1997 VARIETY X PLANTING DATE EXPERIMENT           
 DATA PATH      :                                                               
 TREATMENT  1   : 97 DATE1 CHINESE          CRGRO045                            
  
@YEAR DOY   DAS   DAP   TWAD    PHAD    CMAD    CGRD    GRAD    MRAD    CHAD   CL%D   CS%D   TGNN   TGAV    GN%D    GL%D    GC%D
 1997 149     2     0      0  0.0000  0.0000  0.0000  0.0000  0.0000 0.00000  0.000  0.000 30.992 27.616  0.0000  0.0000  0.0000
 1997 150     3     1      0  0.0000  0.0000  0.0000  0.0000  0.0000 0.00000  0.000  0.000 32.445 28.962  0.0000  0.0000  0.0000
 1997 151     4     2      0  0.0000  0.0000  0.0000  0.0000  0.0000 0.00000  0.000  0.000 31.652 28.631  0.0000  0.0000  0.0000
 1997 152     5     3      0  0.0000  0.0000  0.0000  0.0000  0.0000 0.00000  0.000  0.000 31.415 27.860  0.0000  0.0000  0.0000
 1997 153     6     4      0  0.0000  0.0000  0.0000  0.0000  0.0000 0.00000  0.000  0.000 31.984 28.358  0.0000  0.0000  0.0000
 1997 154     7     5      0  0.0000  0.0000  0.0000  0.0000  0.0000 0.00000  0.000  0.000 31.726 27.745  0.0000  0.0000  0.0000
 1997 155     8     6      0  0.0000  0.0000  0.0000  0.0000  0.0000 0.00000  0.000  0.000 30.154 27.133  0.0000  0.0000  0.0000
 1997 156     9     7      0  0.0000  0.0000  0.0000  0.0000  0.0000 0.00000  0.000  0.000 26.130 24.174  0.0000  0.0000  0.0000
 1997 157    10     8     20  0.0000  0.0010  0.0011  0.0001  0.0000 0.00000  2.956  5.908 30.307 26.503  0.0000  0.0000  0.0000
 1997 158    11     9     22  0.2640  0.0010  0.2039  0.0462  0.0263 0.00000  2.936  5.826 29.703 26.788  0.0000  0.0000  0.0000
 1997 159    12    10     24  0.3466  0.0011  0.2471  0.0657  0.0359 0.00000  2.912  5.752 32.066 28.618  0.0000  0.0000  0.0000
 1997 160    13    11     27  0.5063  0.0012  0.3693  0.0974  0.0462 0.00000  2.908  5.690 32.261 28.350  0.0000  0.0000  0.0000
 1997 161    14    12     31  0.5267  0.0014  0.3696  0.1076  0.0480 0.00000  2.903  5.636 30.994 27.829  0.0000  0.0000  0.0000
 1997 162    15    13     33  0.4494  0.0015  0.2927  0.0978  0.0402 0.00000  2.892  5.582 26.821 25.967  0.0000  0.0000  0.0000
 1997 163    16    14     39  0.7725  0.0015  0.5463  0.1416  0.0567 0.00000  2.884  5.568 28.999 25.622  0.0000  0.0000  0.0000
 1997 164    17    15     43  0.6881  0.0018  0.4409  0.1448  0.0616 0.00000  2.874  5.564 29.816 27.149  0.0000  0.0000  0.0000
 1997 165    18    16     49  0.9460  0.0000  0.6194  0.1746  0.0732 0.01622  3.474  6.034 29.516 26.173  0.0000  0.0000  0.0000
 1997 166    19    17     55  1.0383  0.0025  0.7097  0.2063  0.0810 0.00000  3.400  5.953 28.816 26.149  0.0000  0.0000  0.0000
 1997 167    20    18     63  1.2426  0.0029  0.8313  0.2462  0.0985 0.00000  3.337  5.889 29.384 26.646  0.0000  0.0000  0.0000
 1997 168    21    19     72  1.4210  0.0030  0.9306  0.2873  0.1028 0.00000  3.284  5.851 28.685 25.271  0.0000  0.0000  0.0000
 1997 169    22    20     82  1.6165  0.0036  1.0875  0.3302  0.1306 0.00000  3.223  5.804 30.680 26.804  0.0000  0.0000  0.0000
 1997 170    23    21     92  1.6916  0.0040  1.0655  0.3653  0.1379 0.00000  3.172  5.762 30.622 26.390  0.0000  0.0000  0.0000
 1997 171    24    22    105  2.0438  0.0045  1.3481  0.4312  0.1525 0.00000  3.126  5.731 29.001 25.623  0.0000  0.0000  0.0000
 1997 172    25    23    120  2.3820  0.0055  1.5202  0.5046  0.2050 0.00000  3.084  5.700 31.080 27.879  0.0000  0.0000  0.0000
 1997 173    26    24    129  1.7655  0.0064  1.0347  0.3836  0.1837 0.00000  3.048  5.652 30.816 28.149  0.0000  0.0000  0.0000
 1997 174    27    25    141  2.0713  0.0055  1.2400  0.4750  0.1417 0.00000  3.021  5.632 24.679 22.830  0.0000  0.0000  0.0000
 1997 175    28    26    156  2.6192  0.0068  1.6199  0.5782  0.1976 0.00124  3.003  5.632 27.737 24.893  0.0000  0.0000  0.0000
 1997 176    29    27    177  3.2751  0.0084  2.1422  0.6763  0.2753 0.00828  3.023  5.715 29.816 27.149  0.0000  0.0000  0.0000
 1997 177    30    28    202  4.0760  0.0095  2.6681  0.8317  0.3313 0.01900  3.084  5.885 30.158 27.136  0.0000  0.0000  0.0000
 1997 178    31    29    229  4.4418  0.0112  2.7895  0.9405  0.3741 0.02891  3.164  6.091 30.579 27.379  0.0000  0.0000  0.0000
 1997 179    32    30    252  4.1439  0.0124  2.3921  0.9252  0.3556 0.03500  3.243  6.288 30.295 26.455  0.0000  0.0000  0.0000
 1997 180    33    31    286  5.4915  0.0149  3.5045  1.1302  0.4433 0.05806  3.372  6.585 29.484 26.746  0.0000  0.0000  0.0000
 1997 181    34    32    317  5.4571  0.0177  3.1542  1.2131  0.4502 0.06864  3.490  6.858 28.537 26.368  0.0000  0.0000  0.0000
 1997 182    35    33    355  6.3803  0.0213  3.9434  1.3359  0.5434 0.09367  3.633  7.174 28.789 27.189  0.0000  0.0000  0.0000
 1997 183    36    34    382  4.8944  0.0242  2.8050  1.0526  0.4671 0.08353  3.732  7.391 28.552 26.419  0.0000  0.0000  0.0000
 1997 184    37    35    412  5.4205  0.0236  3.1252  1.1939  0.4271 0.10333  3.849  7.650 26.394 23.905  0.0000  0.0000  0.0000
 1997 185    38    36    445  5.9625  0.0283  3.4156  1.2961  0.5105 0.12487  3.974  7.922 27.814 25.148  0.0000  0.0000  0.0000
 1997 186    39    37    498  8.3631  0.0343  5.3890  1.6540  0.7013 0.19527  4.158  8.318 28.720 26.515  0.0000  0.0000  0.0000
 1997 187    40    38    551  8.9230  0.0393  5.4332  1.8454  0.7455 0.22218  4.334  8.692 28.677 26.153  0.0000  0.0000  0.0000
 1997 188    41    39    608  9.7656  0.0450  5.7769  2.0669  0.7912 0.26245  4.512  9.071 27.972 25.661  0.0000  0.0000  0.0000
 1997 189    42    40    678 11.5188  0.0527  6.9903  2.3545  0.9584 0.32965  4.717  9.510 29.234 26.390  0.0000  0.0000  0.0000
 1997 190    43    41    747 12.0951  0.0617  6.9715  2.5464  1.0682 0.36640  4.899  9.892 30.075 26.876  0.0000  0.0000  0.0000
 1997 191    44    42    803 10.1405  0.0708  5.7539  2.1391  0.9017 0.32503  5.029 10.160 26.835 25.342  0.0000  0.0000  0.0000
 1997 192    45    43    864 10.9281  0.0779  6.1376  2.2783  1.0538 0.36541  5.163 10.438 29.574 26.375  0.0000  0.0000  0.0000
 1997 193    46    44    949 14.3028  0.0868  8.5626  2.9209  1.1489 0.50984  5.349 10.819 26.787 25.187  0.0000  0.0000  0.0000
 1997 194    47    45   1042 15.9651  0.1031  9.4055  3.2091  1.4666 0.59209  5.548 11.205 29.811 27.145  0.0000  0.0000  0.0000
 1997 195    48    46   1131 16.2351  0.1229  9.1197  3.2941  1.6474 0.62579  5.729 11.549 30.810 28.144  0.0000  0.0000  0.0000
 1997 196    49    47   1197 12.3858  0.1313  6.9971  2.4688  1.2631 0.48397  5.848 11.754 28.310 25.644  4.3379 51.0000 13.3881
 1997 197    50    48   1251  9.9641  0.1293  5.7676  1.9489  0.9859 0.38159  5.923 11.882 24.785 23.186  4.1340 50.9696 14.6928
 1997 198    51    49   1342 16.6810  0.1585  9.2824  3.4278  1.5640 0.69265  6.067 12.178 28.388 25.900  4.2651 50.9867 13.8562
 1997 199    52    50   1440 17.5901  0.1737  9.9286  3.6046  1.5768 0.74699  6.213 12.470 27.467 25.157  4.2736 50.9930 13.7968
 1997 200    53    51   1547 18.9876  0.1985 10.8037  3.8207  1.8242 0.82281  6.359 12.761 29.012 26.133  4.3201 50.9958 13.5036
 1997 201    54    52   1632 15.9116  0.2065  8.8417  3.2618  1.5414 0.66913  6.458 12.945 27.243 24.436  4.2797 50.9972 13.7550
 1997 202    55    53   1689 11.3562  0.2274  6.3338  2.2222  1.4445 0.41055  6.491 12.976 28.083 24.920  4.2726 50.9981 13.7985
 1997 203    56    54   1812 21.9888  0.2522 12.4852  4.4502  2.1265 1.01119  6.647 13.290 29.146 26.126  4.3041 50.9986 13.6011
 1997 204    57    55   1920 20.7446  0.2856 11.0080  4.3128  2.2966 0.93687  6.766 13.523 30.485 27.110  4.3501 50.9989 13.3129
 1997 205    58    56   2026 20.6645  0.3106 10.9399  4.3014  2.3244 0.93204  6.872 13.725 30.200 26.861  4.3765 50.9991 13.1478
 1997 206    59    57   2148 23.2925  0.3273 12.4096  4.9355  2.3178 1.10812  7.004 13.981 28.643 25.624  4.3684 50.9993 13.1984
 1997 207    60    58   2272 24.0945  0.3744 12.6197  5.0449  2.7387 1.16584  7.126 14.216 30.562 27.365  4.3976 50.9994 13.0156
 1997 208    61    59   2391 23.7943  0.4112 12.3049  4.9855  2.8999 1.13167  7.228 14.406 31.061 27.865  4.4299 50.9995 12.8139
 1997 209    62    60   2518 25.2644  0.4396 13.1170  5.3253  2.9649 1.22397  7.337 14.607 30.560 27.364  4.4462 50.9996 12.7117
 1997 210    63    61   2611 19.7408  0.4780 10.2279  4.1306  2.7055 0.81871  7.373 14.642 29.800 27.136  4.4552 50.9997 12.6554
 1997 211    64    62   2685 16.6999  0.4816  8.6528  3.5909  2.3528 0.54125  7.368 14.584 28.299 25.635  4.4377 50.9997 12.7646
 1997 212    65    63   2744 14.2337  0.4769  7.3381  3.1829  2.0423 0.33073  7.333 14.460 26.118 24.165  4.3991 50.9998 13.0061
 1997 213    66    64   2820 17.9943  0.5052  8.9420  4.1214  2.3751 0.49348  7.319 14.384 26.798 25.023  4.3810 50.9998 13.1192
 1997 214    67    65   2941 26.0727  0.5297 12.7625  5.8708  3.1435 1.11013  7.395 14.525 29.651 26.669  4.3901 50.9998 13.0623
 1997 215    68    66   3056 25.2933  0.5591 12.2369  5.6148  3.4283 1.07034  7.459 14.636 31.617 27.676  4.4099 50.9998 12.9380
 1997 216    69    67   3134 19.4972  0.6049  9.4370  4.4866  2.9629 0.50475  7.433 14.532 28.648 26.766  4.4163 50.9999 12.8984
 1997 217    70    68   3222 21.3851  0.5997 10.1751  5.0397  2.9892 0.61095  7.423 14.472 28.793 26.131  4.4137 50.9999 12.9147
 1997 218    71    69   3271 14.0458  0.5837  6.5686  3.4713  2.3688 0.38224  7.387 14.345 26.873 24.388  4.3897 50.9999 13.0642
 1997 219    72    70   3349 20.3793  0.6204  9.4095  4.9631  3.0244 0.52735  7.364 14.255 28.791 26.129  4.3900 50.9999 13.0623
 1997 220    73    71   3463 26.5755  0.6134 12.4134  6.4371  3.2689 0.90799  7.403 14.312 28.900 25.599  4.3843 50.9999 13.0980
 1997 221    74    72   3546 21.9816  0.6658  9.9567  5.3800  3.4405 0.58878  7.386 14.234 30.044 27.063  4.3951 50.9999 13.0310
 1997 222    75    73   3653 26.5050  0.6754 12.0836  6.5638  3.5528 0.77086  7.394 14.221 28.869 26.385  4.3975 50.9999 13.0155
 1997 223    76    74   3760 26.6864  0.6904 12.1275  6.6215  3.6721 0.78239  7.405 14.211 29.458 26.513  4.4010 50.9999 12.9941
 1997 224    77    75   3852 24.2273  0.7060 10.7465  6.1699  3.5034 0.69551  7.399 14.166 28.770 26.073  4.3997 50.9999 13.0020
 1997 225    78    76   3945 24.7980  0.7366 10.8761  6.2901  3.7998 0.71940  7.393 14.120 29.382 26.934  4.4065 50.9999 12.9596
 1997 226    79    77   4033 24.3141  0.7512 10.4706  6.1967  3.9474 0.71504  7.384 14.070 30.203 27.365  4.4161 50.9999 12.8995
 1997 227    80    78   4087 15.5526  0.0000  4.7458  3.6711  3.0299 2.23804  7.952 15.271 26.751 25.332  4.4868 50.8400 12.6172
 1997 228    81    79   4177 24.8108  0.8034 10.7295  6.5040  4.0652 0.76030  7.939 15.202 31.921 27.381  4.5320 50.7650 12.4100
 1997 229    82    80   4247 20.5332  0.0000  6.3168  5.3405  3.6763 2.29247  8.510 16.399 29.362 26.879  4.6055 50.6217 12.0936
 1997 230    83    81   4329 23.8617  0.7444  9.7110  6.3334  4.2074 0.75837  8.517 16.359 32.128 28.050  4.6413 50.5728 11.9189
 1997 231    84    82   4419 25.0035  0.6105 10.3206  6.8327  3.6713 0.82609  8.566 16.407 29.034 25.843  4.6579 50.5286 11.8597
 1997 232    85    83   4508 24.3658  0.0000  7.8244  6.5631  3.6458 2.58154  9.181 17.692 28.359 25.877  4.7176 50.3969 11.6181
 1997 233    86    84   4598 25.8242  1.0418 10.6954  6.8931  4.4640 0.84543  9.125 17.530 31.917 28.478  4.7432 50.3701 11.4851
 1997 234    87    85   4666 21.4573  0.0000  6.9790  5.7303  4.1998 1.38699  9.459 18.180 31.866 28.321  4.7861 50.3024 11.2842
 1997 235    88    86   4697 11.7618  0.0000  3.5129  2.6419  3.4192 0.94854  9.714 18.654 30.865 27.320  4.8084 50.2609 11.1864
 1997 236    89    87   4769 21.1591  0.0000  6.4783  5.7473  3.7200 1.98549 10.182 19.603 29.945 26.578  4.8461 50.1825 11.0292
 1997 237    90    88   4847 23.5413  0.9826  9.2774  6.5143  4.0951 0.82954 10.138 19.461 30.860 27.529  4.8564 50.1709 10.9766
 1997 238    91    89   4915 20.4182  0.0000  6.2511  5.5763  3.7184 1.73170 10.543 20.269 29.975 26.679  4.8874 50.1070 10.8469
 1997 239    92    90   4986 21.2799  0.0000  6.7324  5.7655  3.9990 1.50979 10.893 20.950 30.940 27.574  4.9156 50.0570 10.7203
 1997 240    93    91   5028 14.4508  0.0000  4.2909  3.7153  3.3606 1.09430 11.162 21.459 30.528 26.277  4.9343 50.0159 10.6451
 1997 241    94    92   5103 22.0047  1.3684  9.0564  6.1043  3.8027 0.83355 11.019 21.131 29.769 26.687  4.9361 50.0120 10.6376
 1997 242    95    93   5174 21.3544  1.3831  8.8326  5.9031  3.7383 0.81717 10.868 20.795 28.913 26.575  4.9382 50.0067 10.6296
 1997 243    96    94   5246 21.3283  1.3696  8.7161  5.8695  3.7956 0.85370 10.723 20.478 29.632 26.692  4.9412 50.0005 10.6172
 1997 244    97    95   5311 20.2656  1.3763  8.1385  5.4891  4.0645 0.77182 10.565 20.142 31.350 27.809  4.9455 49.9989 10.5918
 1997 245    98    96   5374 19.7108  1.3786  7.8902  5.4486  3.7761 0.77664 10.411 19.816 29.344 26.865  4.9470 49.9966 10.5844
 1997 246    99    97   5421 14.8727  0.0000  4.3195  3.8798  3.2530 1.27835 10.699 20.391 27.674 25.691  4.9620 49.9602 10.5274
 1997 247   100    98   5467 14.9684  0.0000  4.2755  3.8738  3.4820 1.19676 10.968 20.925 28.924 26.623  4.9761 49.9307 10.4686
 1997 248   101    99   5531 19.0950  1.4643  7.6800  5.0503  3.8962 0.94752 10.815 20.604 30.843 27.303  4.9775 49.9309 10.4596
 1997 249   102   100   5602 16.3831  0.0000  3.6605  2.4819  3.5808 4.26542 11.661 22.412 29.924 26.562  4.9368 50.0142 10.6308

*DSSAT Cropping System Model Ver. 4.5.1.023 -Stub         DEC 04, 2014; 01:35:35
                                                                                
*RUN   2        : 97 DATE1 F-MIX            CRGRO045 GHNY9701    2              
 MODEL          : CRGRO045 - Peanut                                             
 EXPERIMENT     : GHNY9701 PN 1997 VARIETY X PLANTING DATE EXPERIMENT           
 DATA PATH      :                                                               
 TREATMENT  2   : 97 DATE1 F-MIX            CRGRO045                            
  
@YEAR DOY   DAS   DAP   TWAD    PHAD    CMAD    CGRD    GRAD    MRAD    CHAD   CL%D   CS%D   TGNN   TGAV    GN%D    GL%D    GC%D
 1997 149     2     0      0  0.0000  0.0000  0.0000  0.0000  0.0000 0.00000  0.000  0.000 30.992 27.616  0.0000  0.0000  0.0000
 1997 150     3     1      0  0.0000  0.0000  0.0000  0.0000  0.0000 0.00000  0.000  0.000 32.445 28.962  0.0000  0.0000  0.0000
 1997 151     4     2      0  0.0000  0.0000  0.0000  0.0000  0.0000 0.00000  0.000  0.000 31.652 28.631  0.0000  0.0000  0.0000
 1997 152     5     3      0  0.0000  0.0000  0.0000  0.0000  0.0000 0.00000  0.000  0.000 31.415 27.860  0.0000  0.0000  0.0000
 1997 153     6     4      0  0.0000  0.0000  0.0000  0.0000  0.0000 0.00000  0.000  0.000 31.984 28.358  0.0000  0.0000  0.0000
 1997 154     7     5      0  0.0000  0.0000  0.0000  0.0000  0.0000 0.00000  0.000  0.000 31.726 27.745  0.0000  0.0000  0.0000
 1997 155     8     6      0  0.0000  0.0000  0.0000  0.0000  0.0000 0.00000  0.000  0.000 30.154 27.133  0.0000  0.0000  0.0000
 1997 156     9     7      0  0.0000  0.0000  0.0000  0.0000  0.0000 0.00000  0.000  0.000 26.130 24.174  0.0000  0.0000  0.0000
 1997 157    10     8     25  0.0000  0.0012  0.0014  0.0002  0.0000 0.00000  2.956  5.908 30.307 26.503  0.0000  0.0000  0.0000
 1997 158    11     9     27  0.3144  0.0013  0.2778  0.0355  0.0321 0.00000  2.931  5.820 29.703 26.788  0.0000  0.0000  0.0000
 1997 159    12    10     30  0.3702  0.0014  0.2677  0.0609  0.0414 0.00000  2.895  5.743 32.066 28.618  0.0000  0.0000  0.0000
 1997 160    13    11     33  0.5261  0.0015  0.3818  0.0995  0.0516 0.00000  2.893  5.678 32.261 28.350  0.0000  0.0000  0.0000
 1997 161    14    12     37  0.5339  0.0016  0.3713  0.1080  0.0525 0.00000  2.890  5.620 30.994 27.829  0.0000  0.0000  0.0000
 1997 162    15    13     39  0.4514  0.0018  0.3031  0.0941  0.0439 0.00000  2.881  5.564 26.821 25.967  0.0000  0.0000  0.0000
 1997 163    16    14     45  0.8436  0.0000  0.5776  0.1465  0.0636 0.00989  3.316  5.918 28.999 25.622  0.0000  0.0000  0.0000
 1997 164    17    15     49  0.7191  0.0023  0.4621  0.1459  0.0674 0.00000  3.262  5.852 29.816 27.149  0.0000  0.0000  0.0000
 1997 165    18    16     55  0.9867  0.0016  0.6696  0.1776  0.0792 0.00000  3.228  5.835 29.516 26.173  0.0000  0.0000  0.0000
 1997 166    19    17     62  1.0667  0.0028  0.7344  0.2051  0.0865 0.00000  3.183  5.798 28.816 26.149  0.0000  0.0000  0.0000
 1997 167    20    18     70  1.2660  0.0031  0.8537  0.2437  0.1040 0.00000  3.143  5.773 29.384 26.646  0.0000  0.0000  0.0000
 1997 168    21    19     79  1.4433  0.0033  0.9558  0.2842  0.1080 0.00000  3.109  5.758 28.685 25.271  0.0000  0.0000  0.0000
 1997 169    22    20     89  1.6260  0.0039  1.1007  0.3276  0.1358 0.00000  3.072  5.723 30.680 26.804  0.0000  0.0000  0.0000
 1997 170    23    21    100  1.6994  0.0043  1.0795  0.3623  0.1429 0.00000  3.040  5.690 30.622 26.390  0.0000  0.0000  0.0000
 1997 171    24    22    113  2.0608  0.0048  1.3657  0.4306  0.1577 0.00000  3.012  5.667 29.001 25.623  0.0000  0.0000  0.0000
 1997 172    25    23    127  2.3973  0.0058  1.5365  0.5036  0.2110 0.00000  2.985  5.642 31.080 27.879  0.0000  0.0000  0.0000
 1997 173    26    24    136  1.7478  0.0067  1.0252  0.3765  0.1881 0.00000  2.958  5.598 30.816 28.149  0.0000  0.0000  0.0000
 1997 174    27    25    148  2.0739  0.0057  1.2420  0.4736  0.1453 0.00000  2.940  5.582 24.679 22.830  0.0000  0.0000  0.0000
 1997 175    28    26    163  2.6258  0.0070  1.6240  0.5783  0.2021 0.00000  2.924  5.568 27.737 24.893  0.0000  0.0000  0.0000
 1997 176    29    27    184  3.2915  0.0086  2.1651  0.6783  0.2810 0.00000  2.908  5.557 29.816 27.149  0.0000  0.0000  0.0000
 1997 177    30    28    210  4.1177  0.0096  2.7569  0.8404  0.3384 0.00088  2.900  5.568 30.158 27.136  0.0000  0.0000  0.0000
 1997 178    31    29    238  4.5612  0.0111  2.9278  0.9580  0.3858 0.00926  2.923  5.641 30.579 27.379  0.0000  0.0000  0.0000
 1997 179    32    30    262  4.2348  0.0121  2.4603  0.9495  0.3660 0.01600  2.959  5.738 30.295 26.455  0.0000  0.0000  0.0000
 1997 180    33    31    297  5.6521  0.0144  3.6613  1.1635  0.4576 0.03226  3.034  5.917 29.484 26.746  0.0000  0.0000  0.0000
 1997 181    34    32    329  5.6417  0.0168  3.3202  1.2516  0.4661 0.04237  3.114  6.103 28.537 26.368  0.0000  0.0000  0.0000
 1997 182    35    33    369  6.6191  0.0200  4.1393  1.3896  0.5639 0.06238  3.217  6.335 28.789 27.189  0.0000  0.0000  0.0000
 1997 183    36    34    396  5.0404  0.0226  2.9105  1.0918  0.4830 0.05731  3.288  6.493 28.552 26.419  0.0000  0.0000  0.0000
 1997 184    37    35    428  5.6010  0.0219  3.2557  1.2433  0.4422 0.07365  3.377  6.693 26.394 23.905  0.0000  0.0000  0.0000
 1997 185    38    36    462  6.1573  0.0262  3.5564  1.3497  0.5284 0.09171  3.474  6.909 27.814 25.148  0.0000  0.0000  0.0000
 1997 186    39    37    516  8.7028  0.0316  5.5994  1.7540  0.7290 0.14764  3.624  7.235 28.720 26.515  0.0000  0.0000  0.0000
 1997 187    40    38    571  9.2871  0.0361  5.6354  1.9558  0.7747 0.17423  3.771  7.554 28.677 26.153  0.0000  0.0000  0.0000
 1997 188    41    39    631 10.1955  0.0413  6.1059  2.1735  0.8234 0.21098  3.923  7.883 27.972 25.661  0.0000  0.0000  0.0000
 1997 189    42    40    704 12.0495  0.0484  7.3781  2.4792  0.9991 0.27084  4.103  8.275 29.234 26.390  0.0000  0.0000  0.0000
 1997 190    43    41    776 12.6260  0.0566  7.3518  2.6880  1.1125 0.30651  4.262  8.616 30.075 26.876  0.0000  0.0000  0.0000
 1997 191    44    42    835 10.5849  0.0650  6.0266  2.2741  0.9390 0.28072  4.377  8.864 26.835 25.342  0.0000  0.0000  0.0000
 1997 192    45    43    898 11.4453  0.0717  6.4488  2.4328  1.0996 0.32154  4.498  9.121 29.574 26.375  0.0000  0.0000  0.0000
 1997 193    46    44    990 15.1712  0.0801  9.3181  3.1072  1.2082 0.45585  4.666  9.477 26.787 25.187  0.0000  0.0000  0.0000
 1997 194    47    45   1089 16.9707  0.0956 10.1128  3.4609  1.5468 0.53467  4.846  9.834 29.811 27.145  0.0000  0.0000  0.0000
 1997 195    48    46   1185 17.3315  0.1118  9.8172  3.5781  1.7426 0.57382  5.011 10.158 30.810 28.144  0.0000  0.0000  0.0000
 1997 196    49    47   1256 13.2081  0.1176  7.4240  2.7093  1.3345 0.46202  5.122 10.364 28.310 25.644  0.0000  0.0000  0.0000
 1997 197    50    48   1313 10.6467  0.1134  6.0832  2.1539  1.0420 0.38740  5.205 10.512 24.785 23.186  0.0000  0.0000  0.0000
 1997 198    51    49   1415 18.0811  0.1387 10.3911  3.6867  1.6693 0.69078  5.357 10.822 28.388 25.900  0.0000  0.0000  0.0000
 1997 199    52    50   1525 19.1745  0.1537 11.0823  3.8991  1.6910 0.77074  5.505 11.132 27.467 25.157  0.0000  0.0000  0.0000
 1997 200    53    51   1644 20.7898  0.1775 12.0312  4.1606  1.9650 0.86383  5.655 11.442 29.012 26.133  4.3931 51.0000 13.0430
 1997 201    54    52   1740 17.3889  0.1852  9.7700  3.5292  1.6589 0.74179  5.761 11.658 27.243 24.436  4.2452 51.0000 13.9672
 1997 202    55    53   1804 12.3205  0.2061  6.9830  2.3249  1.5495 0.52026  5.816 11.749 28.083 24.920  4.2517 51.0000 13.9271
 1997 203    56    54   1948 24.5158  0.2321 14.4591  4.8109  2.3220 1.11006  5.975 12.079 29.146 26.126  4.3152 51.0000 13.5299
 1997 204    57    55   2072 23.0666  0.2660 12.5103  4.6834  2.5087 1.05816  6.096 12.332 30.485 27.110  4.3857 51.0000 13.0896
 1997 205    58    56   2196 23.0324  0.2920 12.4964  4.6490  2.5464 1.07910  6.207 12.561 30.200 26.861  4.4145 51.0000 12.9096
 1997 206    59    57   2340 26.2542  0.3099 14.3904  5.3873  2.5598 1.28074  6.340 12.835 28.643 25.624  4.3918 51.0000 13.0515
 1997 207    60    58   2486 27.1639  0.3598 14.6896  5.4712  3.0322 1.35324  6.463 13.086 30.562 27.365  4.4262 51.0000 12.8363
 1997 208    61    59   2628 26.8091  0.3992 14.3150  5.3586  3.2161 1.36048  6.571 13.304 31.061 27.865  4.4617 51.0000 12.6142
 1997 209    62    60   2781 28.6370  0.4307 15.4619  5.7134  3.3052 1.49996  6.688 13.536 30.560 27.364  4.4762 51.0000 12.5239
 1997 210    63    61   2893 22.1076  0.4738 11.9315  4.2618  3.0040 1.12827  6.751 13.637 29.800 27.136  4.4819 51.0000 12.4884
 1997 211    64    62   2985 18.6524  0.4810 10.2393  3.5473  2.6141 0.91973  6.791 13.682 28.299 25.635  4.4551 51.0000 12.6555
 1997 212    65    63   3061 15.9048  0.4813  8.8556  3.0060  2.2741 0.73046  6.812 13.680 26.118 24.165  4.4039 51.0000 12.9758
 1997 213    66    64   3161 20.3885  0.5213 11.0429  4.0140  2.6640 1.01357  6.858 13.743 26.798 25.023  4.3806 51.0000 13.1212
 1997 214    67    65   3318 30.2687  0.5593 15.8939  6.1493  3.5771 1.69291  6.971 13.966 29.651 26.669  4.3918 51.0000 13.0510
 1997 215    68    66   3466 29.2895  0.6004 15.2142  5.8158  3.9086 1.64946  7.069 14.154 31.617 27.676  4.4157 51.0000 12.9021
 1997 216    69    67   3571 22.3302  0.6619 11.8582  4.3123  3.3712 1.15330  7.108 14.196 28.648 26.766  4.4224 51.0000 12.8597
 1997 217    70    68   3691 24.7864  0.6678 13.0366  4.9297  3.4267 1.33159  7.165 14.283 28.793 26.131  4.4185 51.0000 12.8844
 1997 218    71    69   3761 16.0431  0.6599  8.7362  3.0865  2.7118 0.65697  7.155 14.213 26.873 24.388  4.3895 51.0000 13.0657
 1997 219    72    70   3871 23.7588  0.7146 12.2941  4.7844  3.4937 1.21810  7.195 14.263 28.791 26.129  4.3899 51.0000 13.0633
 1997 220    73    71   4031 31.9098  0.7188 16.3922  6.6247  3.8349 1.88170  7.301 14.469 28.900 25.599  4.3831 51.0000 13.1055
 1997 221    74    72   4150 25.9736  0.8039 13.2694  5.2020  4.0249 1.39842  7.348 14.532 30.044 27.063  4.3958 51.0000 13.0263
 1997 222    75    73   4306 32.1964  0.8331 16.3777  6.6567  4.2164 1.90191  7.438 14.699 28.869 26.385  4.3986 51.0000 13.0087
 1997 223    76    74   4464 32.6411  0.8743 16.4964  6.7506  4.3880 1.95719  7.526 14.860 29.458 26.513  4.4025 51.0000 12.9846
 1997 224    77    75   4601 29.5811  0.9173 14.9976  6.1105  4.1986 1.69414  7.584 14.951 28.770 26.073  4.4009 51.0000 12.9946
 1997 225    78    76   4742 30.4923  0.9823 15.2877  6.2606  4.5836 1.77555  7.641 15.040 29.382 26.934  4.4085 51.0000 12.9467
 1997 226    79    77   4876 29.9822  1.0248 14.7965  6.1485  4.7962 1.72086  7.686 15.106 30.203 27.365  4.4193 51.0000 12.8791
 1997 227    80    78   4945 18.7019  1.0425  9.5218  3.9006  3.6998 0.60696  7.633 14.943 26.751 25.332  4.4088 51.0000 12.9448
 1997 228    81    79   5083 31.1632  1.0252 14.9555  6.5020  5.0714 1.79579  7.685 15.032 31.921 27.381  4.4188 51.0000 12.8827
 1997 229    82    80   5186 25.6018  1.1107 12.4764  5.3739  4.6304 1.21899  7.682 14.985 29.362 26.879  4.4235 51.0000 12.8530
 1997 230    83    81   5317 30.5446  1.1157 14.4491  6.3574  5.4118 1.71794  7.719 15.039 32.128 28.050  4.4372 51.0000 12.7675
 1997 231    84    82   5465 33.0574  1.1254 16.0514  7.1090  4.8346 1.95774  7.778 15.140 29.034 25.843  4.4314 51.0000 12.8040
 1997 232    85    83   5607 32.5687  1.1902 15.6741  7.0711  4.8887 1.86237  7.820 15.204 28.359 25.877  4.4264 51.0000 12.8350
 1997 233    86    84   5760 35.5029  1.2647 16.4460  7.4814  6.1259 2.17134  7.876 15.308 31.917 28.478  4.4418 51.0000 12.7389
 1997 234    87    85   5870 28.6055  1.3094 13.1734  6.0381  5.7876 1.42798  7.868 15.262 31.866 28.321  4.4546 51.0000 12.6585
 1997 235    88    86   5903 14.9830  0.0000  4.7946  3.1510  4.7702 1.02345  8.050 15.582 30.865 27.320  4.5296 50.8551 12.3347
 1997 236    89    87   6015 29.1842  1.3391 13.4554  6.5044  5.2652 1.37017  8.036 15.517 29.945 26.578  4.5240 50.8646 12.3605
 1997 237    90    88   6153 33.8649  1.3875 15.5400  7.4048  5.9204 1.91907  8.063 15.549 30.860 27.529  4.5256 50.8730 12.3418
 1997 238    91    89   6260 28.9145  1.4059 13.2074  6.5390  5.4117 1.25877  8.035 15.455 29.975 26.679  4.5212 50.8809 12.3614
 1997 239    92    90   6376 30.8262  1.4445 13.7555  6.9348  5.9045 1.44883  8.016 15.390 30.940 27.574  4.5233 50.8878 12.3418
 1997 240    93    91   6433 20.0585  1.3993  8.7686  4.6590  4.9710 0.67314  7.940 15.193 30.528 26.277  4.5168 50.8942 12.3758
 1997 241    94    92   6567 33.9455  1.4477 15.0581  7.8029  5.7696 1.79235  7.949 15.198 29.769 26.687  4.5134 50.9000 12.3911
 1997 242    95    93   6695 33.1558  1.4977 14.7653  7.6553  5.7224 1.70008  7.946 15.177 28.913 26.575  4.5096 50.9054 12.4095
 1997 243    96    94   6826 33.5634  1.5140 14.9525  7.6921  5.8695 1.81206  7.952 15.176 29.632 26.692  4.5069 50.9103 12.4218
 1997 244    97    95   6939 31.2794  1.5551 13.4644  7.1452  6.2885 1.50356  7.927 15.109 31.350 27.809  4.5105 50.9146 12.3950
 1997 245    98    96   7051 30.9282  1.5835 13.5979  7.2065  5.8950 1.44847  7.897 15.029 29.344 26.865  4.5088 50.9187 12.4014
 1997 246    99    97   7116 22.3530  1.5770  9.6064  5.4719  5.0587 0.82952  7.820 14.838 27.674 25.691  4.5007 50.9227 12.4477
 1997 247   100    98   7179 22.6934  1.5925  9.4502  5.5293  5.4210 0.82703  7.738 14.642 28.924 26.623  4.4984 50.9262 12.4591
 1997 248   101    99   7290 30.9207  1.5681 13.1761  7.2245  6.1590 1.46615  7.710 14.576 30.843 27.303  4.4995 50.9293 12.4490
 1997 249   102   100   7370 25.7712  1.5709 10.8750  6.2131  5.6352 0.94980  7.640 14.411 29.924 26.562  4.4971 50.9322 12.4611
 1997 250   103   101   7472 29.2175  1.5651 12.5918  7.0481  5.6236 1.20634  7.592 14.300 29.088 26.080  4.4926 50.9350 12.4864
 1997 251   104   102   7591 32.7046  1.6041 13.7834  7.6900  6.2380 1.71365  7.581 14.281 30.087 27.079  4.4929 50.9375 12.4821
 1997 252   105   103   7653 22.8770  1.6397  9.1139  5.5655  5.8668 0.86761  7.497 14.091 30.169 27.338  4.4942 50.9399 12.4712
 1997 253   106   104   7740 27.2862  1.6025 11.2898  6.7194  5.6974 1.05040  7.430 13.944 29.167 26.337  4.4913 50.9421 12.4872
 1997 254   107   105   7825 26.5995  1.5931 11.0361  6.6499  5.3876 1.05516  7.364 13.802 27.916 25.617  4.4855 50.9443 12.5212
 1997 255   108   106   7932 30.8436  1.6071 12.6405  7.4640  6.1191 1.42338  7.327 13.731 29.997 26.814  4.4850 50.9462 12.5226
 1997 256   109   107   8038 31.0022  1.6499 12.4070  7.1734  6.9178 1.60038  7.301 13.689 31.912 28.553  4.4906 50.9478 12.4860
 1997 257   110   108   8128 27.4692  1.5987 11.4298  6.8059  5.4211 1.12629  7.241 13.564 28.162 25.333  4.4845 50.9495 12.5226
 1997 258   111   109   8232 30.3111  1.6538 12.2019  7.1216  6.5106 1.58108  7.214 13.520 30.909 27.550  4.4865 50.9510 12.5084
 1997 259   112   110   8335 29.5379  1.6130 12.1448  7.1110  5.7838 1.51784  7.186 13.473 29.323 25.788  4.4826 50.9525 12.5314
 1997 260   113   111   8440 30.0305  1.6603 12.2533  7.0701  6.1429 1.67820  7.168 13.449 29.905 26.547  4.4814 50.9538 12.5375
 1997 261   114   112   8492 17.6666  0.0000  5.3905  3.9166  4.6332 1.86263  7.403 13.924 25.744 24.153  4.5027 50.8960 12.4623
 1997 262   115   113   8576 26.2792  1.7564 10.8690  6.4812  5.7710 1.21871  7.336 13.786 28.738 26.088  4.5147 50.8677 12.4155
 1997 263   116   114   8645 24.1419  1.7877  9.5921  5.8284  6.2990 1.00471  7.245 13.600 30.569 27.565  4.5280 50.8456 12.3547
 1997 264   117   115   8744 29.7499  1.7840 11.3901  6.8049  7.0632 1.81269  7.220 13.573 31.899 28.542  4.5311 50.8492 12.3313
 1997 265   118   116   8833 27.8207  1.8126 10.6791  6.2670  7.0985 1.62667  7.178 13.505 31.981 28.802  4.5347 50.8525 12.3058
 1997 266   119   117   8870 14.6040  0.0000  4.3448  3.0659  4.6681 1.17330  7.331 13.802 26.817 24.345  4.5505 50.8105 12.2491
 1997 267   120   118   8963 27.1093  1.8360 10.8853  6.2191  6.3012 1.86465  7.307 13.774 30.376 26.987  4.5608 50.7905 12.2046
 1997 268   121   119   9008 16.7107  0.0000  4.8412  3.7196  4.9572 1.41056  7.483 14.124 27.315 24.844  4.5795 50.7440 12.1341
 1997 269   122   120   9081 23.9198  1.8953  9.3962  5.4795  6.3501 1.43186  7.412 13.994 31.500 27.335  4.5882 50.7288 12.0949
 1997 270   123   121   9213 28.0657  0.0000  4.4156  2.8096  7.428710.35139  8.490 16.406 32.803 29.274  4.5747 50.7662 12.1421

*DSSAT Cropping System Model Ver. 4.5.1.023 -Stub         DEC 04, 2014; 01:35:35
                                                                                
*RUN   3        : 97 DATE2 CHINESE          CRGRO045 GHNY9701    3              
 MODEL          : CRGRO045 - Peanut                                             
 EXPERIMENT     : GHNY9701 PN 1997 VARIETY X PLANTING DATE EXPERIMENT           
 DATA PATH      :                                                               
 TREATMENT  3   : 97 DATE2 CHINESE          CRGRO045                            
  
@YEAR DOY   DAS   DAP   TWAD    PHAD    CMAD    CGRD    GRAD    MRAD    CHAD   CL%D   CS%D   TGNN   TGAV    GN%D    GL%D    GC%D
 1997 177     2     0      0  0.0000  0.0000  0.0000  0.0000  0.0000 0.00000  0.000  0.000 30.158 27.136  0.0000  0.0000  0.0000
 1997 178     3     1      0  0.0000  0.0000  0.0000  0.0000  0.0000 0.00000  0.000  0.000 30.579 27.379  0.0000  0.0000  0.0000
 1997 179     4     2      0  0.0000  0.0000  0.0000  0.0000  0.0000 0.00000  0.000  0.000 30.295 26.455  0.0000  0.0000  0.0000
 1997 180     5     3      0  0.0000  0.0000  0.0000  0.0000  0.0000 0.00000  0.000  0.000 29.484 26.746  0.0000  0.0000  0.0000
 1997 181     6     4      0  0.0000  0.0000  0.0000  0.0000  0.0000 0.00000  0.000  0.000 28.537 26.368  0.0000  0.0000  0.0000
 1997 182     7     5      0  0.0000  0.0000  0.0000  0.0000  0.0000 0.00000  0.000  0.000 28.789 27.189  0.0000  0.0000  0.0000
 1997 183     8     6      0  0.0000  0.0000  0.0000  0.0000  0.0000 0.00000  0.000  0.000 28.552 26.419  0.0000  0.0000  0.0000
 1997 184     9     7     20  0.0000  0.0009  0.0010  0.0001  0.0000 0.00000  2.959  5.916 26.394 23.905  0.0000  0.0000  0.0000
 1997 185    10     8     21  0.1878  0.0010  0.1679  0.0212  0.0200 0.00000  2.936  5.831 27.814 25.148  0.0000  0.0000  0.0000
 1997 186    11     9     23  0.3166  0.0011  0.2189  0.0605  0.0293 0.00000  2.906  5.751 28.720 26.515  0.0000  0.0000  0.0000
 1997 187    12    10     26  0.3595  0.0011  0.2536  0.0712  0.0320 0.00000  2.890  5.691 28.677 26.153  0.0000  0.0000  0.0000
 1997 188    13    11     28  0.4439  0.0012  0.3181  0.0905  0.0362 0.00000  2.889  5.635 27.972 25.661  0.0000  0.0000  0.0000
 1997 189    14    12     32  0.5826  0.0014  0.4138  0.1127  0.0470 0.00000  2.888  5.593 29.234 26.390  0.0000  0.0000  0.0000
 1997 190    15    13     37  0.7019  0.0015  0.4776  0.1334  0.0574 0.00000  2.884  5.574 30.075 26.876  0.0000  0.0000  0.0000
 1997 191    16    14     41  0.6653  0.0017  0.4328  0.1428  0.0520 0.00000  2.876  5.568 26.835 25.342  0.0000  0.0000  0.0000
 1997 192    17    15     46  0.7853  0.0019  0.5202  0.1631  0.0650 0.00000  2.867  5.574 29.574 26.375  0.0000  0.0000  0.0000
 1997 193    18    16     53  1.0675  0.0021  0.7268  0.2063  0.0749 0.00000  2.862  5.608 26.787 25.187  0.0000  0.0000  0.0000
 1997 194    19    17     61  1.2859  0.0025  0.8792  0.2499  0.1022 0.00000  2.852  5.646 29.811 27.145  0.0000  0.0000  0.0000
 1997 195    20    18     69  1.3837  0.0030  0.8807  0.2782  0.1206 0.00000  2.839  5.662 30.810 28.144  0.0000  0.0000  0.0000
 1997 196    21    19     76  1.1514  0.0032  0.6927  0.2552  0.0959 0.00000  2.829  5.634 28.310 25.644  0.0000  0.0000  0.0000
 1997 197    22    20     81  1.0223  0.0032  0.6210  0.2280  0.0777 0.00000  2.821  5.608 24.785 23.186  0.0000  0.0000  0.0000
 1997 198    23    21     92  1.6812  0.0039  1.1413  0.3383  0.1304 0.00000  2.820  5.602 28.388 25.900  0.0000  0.0000  0.0000
 1997 199    24    22    104  1.9002  0.0043  1.2753  0.3944  0.1398 0.00000  2.819  5.597 27.467 25.157  0.0000  0.0000  0.0000
 1997 200    25    23    118  2.2265  0.0050  1.4680  0.4656  0.1738 0.00000  2.817  5.592 29.012 26.133  0.0000  0.0000  0.0000
 1997 201    26    24    130  2.1184  0.0053  1.2576  0.4834  0.1569 0.00000  2.812  5.581 27.243 24.436  0.0000  0.0000  0.0000
 1997 202    27    25    140  1.7892  0.0060  1.0624  0.3973  0.1550 0.00056  2.808  5.564 28.083 24.920  0.0000  0.0000  0.0000
 1997 203    28    26    160  3.2372  0.0000  1.9976  0.5997  0.2455 0.12466  3.601  7.340 29.146 26.126  0.0000  0.0000  0.0000
 1997 204    29    27    181  3.3705  0.0103  2.1990  0.6950  0.2837 0.01446  3.577  7.211 30.485 27.110  0.0000  0.0000  0.0000
 1997 205    30    28    203  3.6866  0.0115  2.2893  0.7885  0.3091 0.02288  3.586  7.181 30.200 26.861  0.0000  0.0000  0.0000
 1997 206    31    29    230  4.3434  0.0125  2.7676  0.9204  0.3275 0.03552  3.630  7.241 28.643 25.624  0.0000  0.0000  0.0000
 1997 207    32    30    260  4.9555  0.0152  3.0436  1.0525  0.4200 0.05016  3.701  7.370 30.562 27.365  0.0000  0.0000  0.0000
 1997 208    33    31    291  5.3629  0.0178  3.1906  1.1559  0.4771 0.06507  3.787  7.536 31.061 27.865  0.0000  0.0000  0.0000
 1997 209    34    32    327  6.1197  0.0203  3.7304  1.2886  0.5229 0.08692  3.901  7.772 30.560 27.364  0.0000  0.0000  0.0000
 1997 210    35    33    357  5.5329  0.0239  3.1512  1.2111  0.5066 0.09161  3.995  7.967 29.800 27.136  0.0000  0.0000  0.0000
 1997 211    36    34    386  5.2377  0.0257  3.0042  1.1430  0.4614 0.09819  4.087  8.158 28.299 25.635  0.0000  0.0000  0.0000
 1997 212    37    35    414  4.8959  0.0272  2.8251  1.0628  0.4143 0.10182  4.174  8.339 26.118 24.165  0.0000  0.0000  0.0000
 1997 213    38    36    449  6.2899  0.0317  3.6050  1.3742  0.5189 0.14303  4.294  8.593 26.798 25.023  0.0000  0.0000  0.0000
 1997 214    39    37    507  9.0091  0.0368  5.8760  1.7375  0.7473 0.23447  4.499  9.033 29.651 26.669  0.0000  0.0000  0.0000
 1997 215    40    38    565  9.6082  0.0432  5.8798  1.9499  0.8782 0.25212  4.668  9.388 31.617 27.676  0.0000  0.0000  0.0000
 1997 216    41    39    612  8.4298  0.0521  4.7417  1.7948  0.7931 0.23827  4.794  9.653 28.648 26.766  0.0000  0.0000  0.0000
 1997 217    42    40    667  9.6669  0.0561  5.5996  2.0231  0.8518 0.29078  4.944  9.963 28.793 26.131  0.0000  0.0000  0.0000
 1997 218    43    41    707  7.2633  0.0587  4.1387  1.5083  0.6780 0.22838  5.039 10.154 26.873 24.388  0.0000  0.0000  0.0000
 1997 219    44    42    766 10.4245  0.0690  6.0209  2.1467  0.9477 0.34591  5.190 10.461 28.791 26.129  0.0000  0.0000  0.0000
 1997 220    45    43    852 13.4700  0.0740  8.6194  2.5784  1.0973 0.49177  5.392 10.883 28.900 25.599  0.0000  0.0000  0.0000
 1997 221    46    44    921 12.5426  0.0914  6.9507  2.6069  1.2190 0.45516  5.545 11.190 30.044 27.063  0.0000  0.0000  0.0000
 1997 222    47    45   1013 15.2383  0.1037  9.3298  2.9724  1.3377 0.58657  5.744 11.568 28.869 26.385  0.0000  0.0000  0.0000
 1997 223    48    46   1105 16.2615  0.1189  9.4195  3.2887  1.4634 0.65123  5.933 11.934 29.458 26.513  4.4359 51.0000 12.7755
 1997 224    49    47   1191 15.7845  0.1359  8.7469  3.2800  1.4516 0.64810  6.093 12.238 28.770 26.073  4.3953 51.0000 13.0294
 1997 225    50    48   1283 16.9179  0.1590  9.2893  3.4954  1.6520 0.71414  6.239 12.533 29.382 26.934  4.4474 51.0000 12.7035
 1997 226    51    49   1378 17.4662  0.1794  9.5238  3.5894  1.7955 0.75448  6.373 12.808 30.203 27.365  4.4875 51.0000 12.4534
 1997 227    52    50   1441 12.1193  0.1955  6.8208  2.3935  1.3592 0.49219  6.436 12.908 26.751 25.332  4.4093 51.0000 12.9419
 1997 228    53    51   1546 19.1881  0.2036 10.5914  3.8876  2.0238 0.86234  6.581 13.201 31.921 27.381  4.4510 51.0000 12.6814
 1997 229    54    52   1634 16.8028  0.2393  9.1388  3.4116  1.8718 0.73975  6.679 13.384 29.362 26.879  4.4591 51.0000 12.6309
 1997 230    55    53   1740 20.0612  0.2553 10.6758  4.1064  2.2915 0.92953  6.806 13.637 32.128 28.050  4.4983 51.0000 12.3856
 1997 231    56    54   1860 21.5737  0.2727 12.1443  4.3640  2.0993 1.03751  6.946 13.912 29.034 25.843  4.4646 51.0000 12.5964
 1997 232    57    55   1976 21.8674  0.3079 11.8178  4.5467  2.1810 1.06013  7.073 14.155 28.359 25.877  4.4420 51.0000 12.7372
 1997 233    58    56   2108 24.1951  0.3490 13.3149  4.7932  2.8298 1.22398  7.209 14.422 31.917 28.478  4.4832 51.0000 12.4800
 1997 234    59    57   2213 20.9514  0.3819 10.9716  4.2425  2.7142 1.01048  7.295 14.574 31.866 28.321  4.5111 51.0000 12.3058
 1997 235    60    58   2264 11.8999  0.4033  6.3169  2.2889  2.1313 0.37142  7.270 14.474 30.865 27.320  4.5139 51.0000 12.2883
 1997 236    61    59   2371 21.7303  0.4080 11.2294  4.6129  2.5559 1.00541  7.351 14.618 29.945 26.578  4.5017 51.0000 12.3641
 1997 237    62    60   2496 24.9544  0.4461 12.8030  5.2800  2.9704 1.23132  7.458 14.821 30.860 27.529  4.5095 51.0000 12.3154
 1997 238    63    61   2602 22.2854  0.4725 11.3761  4.7734  2.7503 0.99231  7.521 14.921 29.975 26.679  4.5010 51.0000 12.3686
 1997 239    64    62   2716 23.9204  0.5090 12.0950  5.1127  3.0828 1.11072  7.595 15.044 30.940 27.574  4.5089 51.0000 12.3192
 1997 240    65    63   2786 16.4915  0.5103  8.2711  3.5720  2.5494 0.50695  7.578 14.962 30.528 26.277  4.4953 51.0000 12.4043
 1997 241    66    64   2910 26.2008  0.5472 13.0413  5.7799  3.1342 1.24138  7.663 15.117 29.769 26.687  4.4900 51.0000 12.4373
 1997 242    67    65   3032 26.0520  0.5899 12.8671  5.8061  3.1680 1.18490  7.730 15.230 28.913 26.575  4.4840 51.0000 12.4748
 1997 243    68    66   3155 26.6306  0.6168 13.0318  5.9640  3.3131 1.21075  7.795 15.339 29.632 26.692  4.4807 51.0000 12.4959
 1997 244    69    67   3268 25.5742  0.6548 12.3233  5.6990  3.6115 1.09776  7.838 15.396 31.350 27.809  4.4921 51.0000 12.4245
 1997 245    70    68   3378 25.4453  0.6883 12.1766  5.8507  3.4351 0.99894  7.862 15.411 29.344 26.865  4.4902 51.0000 12.4362
 1997 246    71    69   3450 19.1089  0.7022  9.0905  4.5755  2.9261 0.51255  7.822 15.275 27.674 25.691  4.4737 51.0000 12.5397
 1997 247    72    70   3522 19.5290  0.7235  9.0299  4.7038  3.1941 0.52475  7.781 15.138 28.924 26.623  4.4710 51.0000 12.5563
 1997 248    73    71   3630 25.9679  0.7239 12.0902  6.0852  3.7631 0.94141  7.798 15.140 30.843 27.303  4.4761 51.0000 12.5241
 1997 249    74    72   3715 22.2027  0.7396 10.2893  5.3518  3.4544 0.62143  7.772 15.039 29.924 26.562  4.4729 51.0000 12.5445
 1997 250    75    73   3813 24.8821  0.7496 11.4118  6.1160  3.5167 0.70311  7.754 14.963 29.088 26.080  4.4650 51.0000 12.5941
 1997 251    76    74   3923 27.4691  0.7821 12.4530  6.6833  3.9640 0.88862  7.757 14.938 30.087 27.079  4.4680 51.0000 12.5750
 1997 252    77    75   3990 20.1603  0.8095  8.6401  5.0931  3.7144 0.59224  7.718 14.812 30.169 27.338  4.4731 51.0000 12.5428
 1997 253    78    76   4077 23.7184  0.8011 10.4051  6.0254  3.6905 0.71312  7.697 14.732 29.167 26.337  4.4684 51.0000 12.5722
 1997 254    79    77   4160 23.2028  0.8080 10.0726  6.0453  3.5208 0.72173  7.679 14.656 27.916 25.617  4.4575 51.0000 12.6403
 1997 255    80    78   4259 26.5855  0.8273 11.4755  6.8158  4.0391 0.81691  7.669 14.606 29.997 26.814  4.4585 51.0000 12.6344
 1997 256    81    79   4355 26.8507  0.8597 11.2912  6.7965  4.5877 0.82273  7.654 14.547 31.912 28.553  4.4731 51.0000 12.5434
 1997 257    82    80   4439 24.0403  0.8340 10.0994  6.4897  3.5812 0.79048  7.643 14.493 28.162 25.333  4.4605 51.0000 12.6218
 1997 258    83    81   4532 26.3950  0.8755 10.9117  6.9312  4.3198 0.84535  7.630 14.441 30.909 27.550  4.4667 51.0000 12.5831
 1997 259    84    82   4623 25.7307  0.8545 10.6700  6.9404  3.8276 0.86055  7.623 14.405 29.323 25.788  4.4593 51.0000 12.6295
 1997 260    85    83   4715 26.1531  0.8857 10.8227  6.9973  4.0616 0.88359  7.616 14.366 29.905 26.547  4.4581 51.0000 12.6370
 1997 261    86    84   4772 16.0168  0.0000  4.8728  3.7913  2.9741 2.43471  8.163 15.521 25.744 24.153  4.5053 50.8781 12.4640
 1997 262    87    85   4853 23.2633  0.0000  7.6544  6.1839  3.7932 2.19600  8.655 16.533 28.738 26.088  4.5655 50.7472 12.2183
 1997 263    88    86   4924 21.5581  0.0000  7.0639  5.7143  4.1190 1.56852  9.015 17.238 30.569 27.565  4.6166 50.6532 11.9930
 1997 264    89    87   5011 25.6406  1.1386 10.6797  6.7678  4.6367 0.89574  8.955 17.073 31.899 28.542  4.6448 50.6154 11.8546
 1997 265    90    88   5089 24.1951  1.1516  9.7483  6.4541  4.6497 0.85466  8.885 16.897 31.981 28.802  4.6707 50.5831 11.7247
 1997 266    91    89   5129 13.2165  0.0000  3.9929  3.1035  2.9521 1.62070  9.250 17.631 26.817 24.345  4.6958 50.5159 11.6351
 1997 267    92    90   5208 23.3715  0.0000  7.8630  6.2718  4.1033 1.58446  9.595 18.305 30.376 26.987  4.7339 50.4398 11.4731
 1997 268    93    91   5255 14.8958  0.0000  4.4647  3.6777  3.1434 1.68682  9.967 19.047 27.315 24.844  4.7583 50.3771 11.3835
 1997 269    94    92   5321 20.7764  0.0000  6.7453  5.6135  4.0980 1.19319 10.231 19.541 31.500 27.335  4.7889 50.3193 11.2498
 1997 270    95    93   5396 23.4505  1.3910  9.3668  6.2067  4.7820 0.88941 10.107 19.260 32.803 29.274  4.8068 50.3017 11.1556
 1997 271    96    94   5472 22.5437  1.3097  9.3016  6.1887  3.8552 0.88495  9.998 19.013 30.377 25.967  4.8119 50.2848 11.1405
 1997 272    97    95   5544 22.4151  1.3886  8.9317  5.9310  4.6114 0.87718  9.872 18.739 32.300 28.772  4.8255 50.2705 11.0701
 1997 273    98    96   5612 21.2491  1.3757  8.4851  5.7380  4.2780 0.83516  9.744 18.462 31.298 27.771  4.8346 50.2582 11.0258
 1997 274    99    97   5681 21.4779  1.3966  8.5313  5.5023  4.6557 0.96688  9.630 18.219 32.051 29.054  4.8455 50.2485 10.9670
 1997 275   100    98   5754 22.0175  1.3949  8.7439  5.5393  4.7856 1.09771  9.534 18.016 32.465 29.292  4.8559 50.2404 10.9101
 1997 276   101    99   5816 18.2146  1.2869  7.7091  4.9719  3.1456 0.80517  9.419 17.776 26.634 23.814  4.8512 50.2320 10.9477
 1997 277   102   100   5909 19.6816  0.0000  4.1568  2.8070  3.7355 6.23263 10.570 20.283 29.948 25.720  4.8151 50.3011 11.1046

*DSSAT Cropping System Model Ver. 4.5.1.023 -Stub         DEC 04, 2014; 01:35:35
                                                                                
*RUN   4        : 97 DATE2 F-MIX            CRGRO045 GHNY9701    4              
 MODEL          : CRGRO045 - Peanut                                             
 EXPERIMENT     : GHNY9701 PN 1997 VARIETY X PLANTING DATE EXPERIMENT           
 DATA PATH      :                                                               
 TREATMENT  4   : 97 DATE2 F-MIX            CRGRO045                            
  
@YEAR DOY   DAS   DAP   TWAD    PHAD    CMAD    CGRD    GRAD    MRAD    CHAD   CL%D   CS%D   TGNN   TGAV    GN%D    GL%D    GC%D
 1997 177     2     0      0  0.0000  0.0000  0.0000  0.0000  0.0000 0.00000  0.000  0.000 30.158 27.136  0.0000  0.0000  0.0000
 1997 178     3     1      0  0.0000  0.0000  0.0000  0.0000  0.0000 0.00000  0.000  0.000 30.579 27.379  0.0000  0.0000  0.0000
 1997 179     4     2      0  0.0000  0.0000  0.0000  0.0000  0.0000 0.00000  0.000  0.000 30.295 26.455  0.0000  0.0000  0.0000
 1997 180     5     3      0  0.0000  0.0000  0.0000  0.0000  0.0000 0.00000  0.000  0.000 29.484 26.746  0.0000  0.0000  0.0000
 1997 181     6     4      0  0.0000  0.0000  0.0000  0.0000  0.0000 0.00000  0.000  0.000 28.537 26.368  0.0000  0.0000  0.0000
 1997 182     7     5      0  0.0000  0.0000  0.0000  0.0000  0.0000 0.00000  0.000  0.000 28.789 27.189  0.0000  0.0000  0.0000
 1997 183     8     6      0  0.0000  0.0000  0.0000  0.0000  0.0000 0.00000  0.000  0.000 28.552 26.419  0.0000  0.0000  0.0000
 1997 184     9     7      0  0.0000  0.0000  0.0000  0.0000  0.0000 0.00000  0.000  0.000 26.394 23.905  0.0000  0.0000  0.0000
 1997 185    10     8     25  0.0000  0.0012  0.0014  0.0002  0.0000 0.00000  2.956  5.910 27.814 25.148  0.0000  0.0000  0.0000
 1997 186    11     9     27  0.3410  0.0013  0.3017  0.0387  0.0327 0.00000  2.932  5.822 28.720 26.515  0.0000  0.0000  0.0000
 1997 187    12    10     30  0.3693  0.0014  0.2692  0.0630  0.0350 0.00000  2.894  5.749 28.677 26.153  0.0000  0.0000  0.0000
 1997 188    13    11     33  0.4333  0.0015  0.3027  0.0889  0.0384 0.00000  2.890  5.684 27.972 25.661  0.0000  0.0000  0.0000
 1997 189    14    12     37  0.5854  0.0016  0.4412  0.1089  0.0498 0.00000  2.888  5.631 29.234 26.390  0.0000  0.0000  0.0000
 1997 190    15    13     41  0.6948  0.0018  0.5062  0.1285  0.0599 0.00000  2.883  5.607 30.075 26.876  0.0000  0.0000  0.0000
 1997 191    16    14     45  0.6504  0.0019  0.4364  0.1329  0.0541 0.00000  2.874  5.589 26.835 25.342  0.0000  0.0000  0.0000
 1997 192    17    15     50  0.7651  0.0021  0.5120  0.1518  0.0669 0.00000  2.864  5.591 29.574 26.375  0.0000  0.0000  0.0000
 1997 193    18    16     57  1.0510  0.0000  0.7137  0.1906  0.0767 0.00218  2.967  5.723 26.787 25.187  0.0000  0.0000  0.0000
 1997 194    19    17     65  1.2498  0.0028  0.8724  0.2317  0.1032 0.00000  2.946  5.722 29.811 27.145  0.0000  0.0000  0.0000
 1997 195    20    18     73  1.3399  0.0033  0.8823  0.2581  0.1211 0.00000  2.925  5.712 30.810 28.144  0.0000  0.0000  0.0000
 1997 196    21    19     80  1.0987  0.0035  0.6876  0.2216  0.0959 0.00000  2.904  5.687 28.310 25.644  0.0000  0.0000  0.0000
 1997 197    22    20     85  0.9328  0.0034  0.5717  0.2041  0.0762 0.00000  2.889  5.647 24.785 23.186  0.0000  0.0000  0.0000
 1997 198    23    21     95  1.5683  0.0042  1.0664  0.3161  0.1271 0.00000  2.880  5.625 28.388 25.900  0.0000  0.0000  0.0000
 1997 199    24    22    106  1.7812  0.0045  1.1921  0.3685  0.1359 0.00000  2.871  5.607 27.467 25.157  0.0000  0.0000  0.0000
 1997 200    25    23    119  2.0891  0.0052  1.3748  0.4353  0.1682 0.00000  2.862  5.593 29.012 26.133  0.0000  0.0000  0.0000
 1997 201    26    24    130  1.9785  0.0054  1.1775  0.4485  0.1514 0.00000  2.852  5.577 27.243 24.436  0.0000  0.0000  0.0000
 1997 202    27    25    139  1.6484  0.0060  0.9821  0.3628  0.1487 0.00000  2.840  5.547 28.083 24.920  0.0000  0.0000  0.0000
 1997 203    28    26    158  3.0504  0.0000  1.8734  0.5614  0.2359 0.12849  4.203  6.568 29.146 26.126  0.0000  0.0000  0.0000
 1997 204    29    27    178  3.1774  0.0101  2.0937  0.6546  0.2723 0.00000  4.030  6.393 30.485 27.110  0.0000  0.0000  0.0000
 1997 205    30    28    199  3.4838  0.0111  2.1974  0.7446  0.2965 0.00046  3.884  6.254 30.200 26.861  0.0000  0.0000  0.0000
 1997 206    31    29    225  4.1403  0.0118  2.6881  0.8771  0.3152 0.00782  3.781  6.209 28.643 25.624  0.0000  0.0000  0.0000
 1997 207    32    30    253  4.7364  0.0140  2.9681  1.0084  0.4046 0.01752  3.719  6.236 30.562 27.365  0.0000  0.0000  0.0000
 1997 208    33    31    283  5.1739  0.0160  3.1388  1.1151  0.4621 0.02864  3.693  6.321 31.061 27.865  0.0000  0.0000  0.0000
 1997 209    34    32    319  5.9441  0.0179  3.6976  1.2545  0.5086 0.04393  3.703  6.465 30.560 27.364  0.0000  0.0000  0.0000
 1997 210    35    33    349  5.3920  0.0208  3.1060  1.1910  0.4940 0.05016  3.720  6.601 29.800 27.136  0.0000  0.0000  0.0000
 1997 211    36    34    377  5.1171  0.0221  2.9690  1.1274  0.4505 0.05739  3.751  6.743 28.299 25.635  0.0000  0.0000  0.0000
 1997 212    37    35    404  4.7867  0.0232  2.7938  1.0502  0.4047 0.06249  3.788  6.884 26.118 24.165  0.0000  0.0000  0.0000
 1997 213    38    36    438  6.1871  0.0269  3.5881  1.3670  0.5086 0.09187  3.852  7.091 26.798 25.023  0.0000  0.0000  0.0000
 1997 214    39    37    496  8.9209  0.0311  5.8353  1.7489  0.7361 0.15692  3.986  7.456 29.651 26.669  0.0000  0.0000  0.0000
 1997 215    40    38    553  9.4857  0.0364  5.8325  1.9583  0.8635 0.17461  4.099  7.763 31.617 27.676  0.0000  0.0000  0.0000
 1997 216    41    39    599  8.3409  0.0438  4.7444  1.8038  0.7805 0.17154  4.187  8.000 28.648 26.766  0.0000  0.0000  0.0000
 1997 217    42    40    654  9.6362  0.0472  5.7132  2.0301  0.8423 0.21610  4.299  8.280 28.793 26.131  0.0000  0.0000  0.0000
 1997 218    43    41    694  7.2462  0.0495  4.1491  1.5402  0.6705 0.17703  4.372  8.461 26.873 24.388  0.0000  0.0000  0.0000
 1997 219    44    42    755 10.5166  0.0583  6.2396  2.1820  0.9445 0.27398  4.494  8.750 28.791 26.129  0.0000  0.0000  0.0000
 1997 220    45    43    844 13.7150  0.0629  8.9130  2.6582  1.1024 0.39939  4.666  9.159 28.900 25.599  0.0000  0.0000  0.0000
 1997 221    46    44    915 12.8127  0.0782  7.1573  2.7245  1.2274 0.37594  4.786  9.448 30.044 27.063  0.0000  0.0000  0.0000
 1997 222    47    45   1011 15.7324  0.0875  9.8481  3.0968  1.3584 0.49507  4.962  9.819 28.869 26.385  0.0000  0.0000  0.0000
 1997 223    48    46   1108 16.8474  0.0992  9.9196  3.4602  1.4918 0.55536  5.127 10.173 29.458 26.513  0.0000  0.0000  0.0000
 1997 224    49    47   1199 16.4787  0.1120  9.1755  3.5018  1.4872 0.57289  5.268 10.474 28.770 26.073  0.0000  0.0000  0.0000
 1997 225    50    48   1295 17.7971  0.1303  9.9511  3.7114  1.7020 0.64870  5.419 10.777 29.382 26.934  0.0000  0.0000  0.0000
 1997 226    51    49   1396 18.4529  0.1460 10.2533  3.8098  1.8561 0.70355  5.557 11.068 30.203 27.365  0.0000  0.0000  0.0000
 1997 227    52    50   1464 12.7777  0.1610  7.2687  2.5152  1.3999 0.51209  5.633 11.215 26.751 25.332  0.0000  0.0000  0.0000
 1997 228    53    51   1582 20.5307  0.1690 11.8456  4.0664  2.1122 0.84833  5.774 11.528 31.921 27.381  4.5339 51.0000 12.1633
 1997 229    54    52   1680 18.0075  0.2019  9.9465  3.6246  1.9570 0.76888  5.873 11.746 29.362 26.879  4.4878 51.0000 12.4513
 1997 230    55    53   1799 21.7096  0.2175 11.9599  4.3550  2.4165 0.95235  5.997 12.021 32.128 28.050  4.5587 51.0000 12.0079
 1997 231    56    54   1935 23.5803  0.2341 13.7131  4.6700  2.2320 1.08197  6.138 12.318 29.034 25.843  4.4655 51.0000 12.5907
 1997 232    57    55   2068 24.0133  0.2680 13.2677  4.9092  2.3299 1.13216  6.260 12.585 28.359 25.877  4.4254 51.0000 12.8412
 1997 233    58    56   2216 26.5925  0.3085 14.9019  5.2012  3.0345 1.27769  6.393 12.861 31.917 28.478  4.5000 51.0000 12.3753
 1997 234    59    57   2337 22.9990  0.3404 12.2984  4.5386  2.9089 1.11522  6.481 13.043 31.866 28.321  4.5394 51.0000 12.1288
 1997 235    60    58   2398 12.8905  0.3624  7.1068  2.2602  2.2680 0.57564  6.496 13.038 30.865 27.320  4.5362 51.0000 12.1487
 1997 236    61    59   2525 24.1396  0.3710 12.9617  4.8454  2.7640 1.22622  6.593 13.239 29.945 26.578  4.5144 51.0000 12.2847
 1997 237    62    60   2674 27.9881  0.4127 14.8922  5.6371  3.2397 1.47710  6.710 13.485 30.860 27.529  4.5222 51.0000 12.2363
 1997 238    63    61   2804 24.9412  0.4422 13.3831  4.9490  3.0011 1.31408  6.799 13.659 29.975 26.679  4.5082 51.0000 12.3240
 1997 239    64    62   2944 26.9377  0.4850 14.2803  5.3431  3.3848 1.45616  6.894 13.846 30.940 27.574  4.5171 51.0000 12.2680
 1997 240    65    63   3033 18.3293  0.4900  9.8922  3.4409  2.7857 0.91975  6.930 13.887 30.528 26.277  4.4982 51.0000 12.3861
 1997 241    66    64   3190 30.0124  0.5383 15.8441  6.0631  3.4878 1.70712  7.041 14.111 29.769 26.687  4.4912 51.0000 12.4302
 1997 242    67    65   3345 29.9450  0.5910 15.8485  6.0057  3.5419 1.72644  7.142 14.309 28.913 26.575  4.4836 51.0000 12.4775
 1997 243    68    66   3503 30.7428  0.6284 16.2110  6.1413  3.7243 1.80117  7.243 14.504 29.632 26.692  4.4795 51.0000 12.5029
 1997 244    69    67   3650 29.4249  0.6797 15.2916  5.7809  4.0670 1.71187  7.324 14.653 31.350 27.809  4.4937 51.0000 12.4141
 1997 245    70    68   3797 29.4578  0.7276 15.4374  5.8622  3.8902 1.73264  7.401 14.788 29.344 26.865  4.4912 51.0000 12.4299
 1997 246    71    69   3898 21.8523  0.7558 11.6810  4.2349  3.3070 1.13855  7.422 14.788 27.674 25.691  4.4708 51.0000 12.5573
 1997 247    72    70   4000 22.4261  0.7963 11.7680  4.3626  3.6273 1.15742  7.441 14.783 28.924 26.623  4.4680 51.0000 12.5753
 1997 248    73    71   4149 30.5181  0.8113 15.5793  6.1079  4.3285 1.81476  7.514 14.915 30.843 27.303  4.4745 51.0000 12.5345
 1997 249    74    72   4269 25.9335  0.8453 13.4054  5.1229  3.9761 1.43578  7.553 14.960 29.924 26.562  4.4708 51.0000 12.5577
 1997 250    75    73   4411 29.5850  0.8751 15.2325  5.9981  4.0896 1.73209  7.615 15.059 29.088 26.080  4.4615 51.0000 12.6155
 1997 251    76    74   4570 33.1890  0.9397 16.7841  6.7264  4.6592 2.04486  7.693 15.200 30.087 27.079  4.4655 51.0000 12.5906
 1997 252    77    75   4670 23.7676  0.9987 12.0501  4.6978  4.3419 1.17643  7.692 15.154 30.169 27.338  4.4722 51.0000 12.5490
 1997 253    78    76   4798 28.5684  1.0007 14.2789  5.9257  4.3597 1.55720  7.723 15.186 29.167 26.337  4.4664 51.0000 12.5852
 1997 254    79    77   4923 28.1496  1.0276 14.1283  5.9258  4.1894 1.49437  7.748 15.203 27.916 25.617  4.4530 51.0000 12.6686
 1997 255    80    78   5071 32.8093  1.0723 16.0151  6.9110  4.8974 1.88992  7.799 15.285 29.997 26.814  4.4546 51.0000 12.6586
 1997 256    81    79   5219 33.2491  1.1422 16.0164  6.7627  5.6301 2.00143  7.851 15.371 31.912 28.553  4.4719 51.0000 12.5504
 1997 257    82    80   5350 29.8829  1.1254 14.7707  6.3710  4.4479 1.62734  7.877 15.393 28.162 25.333  4.4573 51.0000 12.6421
 1997 258    83    81   5495 33.1749  1.2096 15.8867  6.9382  5.4631 1.94351  7.917 15.454 30.909 27.550  4.4649 51.0000 12.5945
 1997 259    84    82   5638 32.6713  1.1980 15.7946  7.0150  4.9207 1.87179  7.955 15.506 29.323 25.788  4.4561 51.0000 12.6494
 1997 260    85    83   5784 33.4566  1.2698 16.1089  7.1129  5.3081 1.95339  7.992 15.558 29.905 26.547  4.4549 51.0000 12.6571
 1997 261    86    84   5850 19.7288  1.2638  9.7247  4.3988  3.9270 0.63120  7.929 15.375 25.744 24.153  4.4328 51.0000 12.7949
 1997 262    87    85   5969 29.8798  1.3203 13.9964  6.6224  5.0740 1.42826  7.919 15.325 28.738 26.088  4.4296 51.0000 12.8151
 1997 263    88    86   6070 27.6456  1.3763 12.6895  6.0113  5.5805 1.18313  7.886 15.221 30.569 27.565  4.4380 51.0000 12.7625
 1997 264    89    87   6210 34.5334  1.3990 15.5650  7.4190  6.4312 1.94162  7.910 15.255 31.899 28.542  4.4524 51.0000 12.6727
 1997 265    90    88   6335 32.4142  1.4463 14.5326  6.9487  6.5092 1.70417  7.911 15.237 31.981 28.802  4.4671 51.0000 12.5805
 1997 266    91    89   6386 16.8917  0.0000  5.3439  3.6536  4.1674 2.15271  8.219 15.843 26.817 24.345  4.5374 50.8198 12.3215
 1997 267    92    90   6509 32.1575  1.5074 14.5986  7.2011  5.8401 1.61265  8.209 15.790 30.376 26.987  4.5345 50.8306 12.3287
 1997 268    93    91   6565 19.6721  1.4822  8.9023  4.6777  4.4947 0.69834  8.134 15.586 27.315 24.844  4.5169 50.8410 12.4284
 1997 269    94    92   6665 28.7083  1.5096 12.6192  6.5536  5.8913 1.14714  8.086 15.455 31.500 27.335  4.5175 50.8497 12.4157
 1997 270    95    93   6792 34.0020  1.5728 14.5983  7.4725  7.0080 1.82487  8.083 15.435 32.803 29.274  4.5291 50.8573 12.3358
 1997 271    96    94   6923 33.5387  1.4948 14.8386  7.7715  5.7247 1.75335  8.084 15.422 30.377 25.967  4.5209 50.8648 12.3794
 1997 272    97    95   7042 32.8720  1.6304 13.9966  7.3837  6.8618 1.66284  8.063 15.365 32.300 28.772  4.5291 50.8714 12.3215
 1997 273    98    96   7150 31.1303  1.6382 13.3111  7.2034  6.3944 1.39312  8.021 15.260 31.298 27.771  4.5315 50.8776 12.3005
 1997 274    99    97   7261 31.8762  1.6859 13.3721  7.2118  7.0132 1.52854  7.985 15.173 32.051 29.054  4.5402 50.8832 12.2408
 1997 275   100    98   7381 33.5806  1.7004 14.0716  7.5025  7.2816 1.81070  7.971 15.136 32.465 29.292  4.5492 50.8882 12.1792
 1997 276   101    99   7475 27.4644  1.5613 12.2656  6.8011  4.7856 1.05560  7.917 14.998 26.634 23.814  4.5294 50.8935 12.2976
 1997 277   102   100   7581 30.0408  1.6080 13.0251  7.1878  5.7098 1.31461  7.875 14.897 29.948 25.720  4.5215 50.8981 12.3427
 1997 278   103   101   7632 18.0436  0.0000  5.4723  3.8810  5.0727 1.89433  8.126 15.386 29.532 25.480  4.5588 50.8101 12.1971
 1997 279   104   102   7745 31.7715  1.7326 13.6118  7.5783  6.2925 1.68613  8.104 15.326 30.995 26.874  4.5803 50.7667 12.1064
 1997 280   105   103   7856 31.0641  1.7181 13.6320  7.6022  5.6678 1.53145  8.071 15.244 28.968 25.411  4.5926 50.7285 12.0677
 1997 281   106   104   7896 17.4273  0.0000  5.2699  3.7070  5.8343 1.02720  8.226 15.513 30.541 27.548  4.6227 50.6721 11.9360
 1997 282   107   105   7985 28.6964  1.9058 11.7946  6.9161  6.8345 1.21077  8.144 15.331 30.866 28.542  4.6438 50.6433 11.8331
 1997 283   108   106   8076 29.0359  1.8979 11.8085  6.8592  7.0622 1.36109  8.075 15.181 31.658 28.913  4.6632 50.6194 11.7354
 1997 284   109   107   8170 29.5123  1.9015 12.0289  6.9472  7.0746 1.47727  8.015 15.053 31.491 28.817  4.6803 50.5987 11.6494
 1997 285   110   108   8255 27.7825  1.8863 11.2022  6.5943  6.9486 1.25531  7.937 14.888 32.028 28.615  4.6957 50.5788 11.5728
 1997 286   111   109   8349 29.1911  1.8731 11.7881  6.9060  6.9481 1.49543  7.881 14.774 32.005 28.347  4.7101 50.5587 11.5035
 1997 287   112   110   8408 22.0675  0.0000  6.4252  5.1613  6.3495 1.53791  8.079 15.157 30.652 27.910  4.7367 50.5097 11.3858
 1997 288   113   111   8506 28.8359  1.8902 12.0652  7.1211  6.0251 1.48948  8.019 15.036 29.688 26.207  4.7407 50.4954 11.3752
 1997 289   114   112   8602 29.4103  1.9235 11.6598  7.0403  6.6219 1.53745  7.954 14.915 31.296 27.429  4.7351 50.5095 11.3962
 1997 290   115   113   8655 20.8810  0.0000  6.0308  4.8874  6.3874 1.12305  8.104 15.194 31.336 27.963  4.7574 50.4688 11.2972
 1997 291   116   114   8707 21.0670  0.0000  6.0116  4.8244  6.8758 0.91428  8.229 15.419 33.283 28.997  4.7777 50.4377 11.2014
 1997 292   117   115   8770 21.4066  0.0000  6.1924  5.2115  5.4802 1.78460  8.444 15.850 28.837 25.676  4.7985 50.3864 11.1231
 1997 293   118   116   8823 20.5513  0.0000  5.7747  4.8553  6.2743 1.14705  8.592 16.129 31.262 27.750  4.8169 50.3520 11.0424
 1997 294   119   117   8869 19.6322  0.2280  5.5762  4.7257  6.3029 0.80542  8.677 16.279 31.590 27.939  4.8339 50.3211 10.9670
 1997 295   120   118   8947 25.9905  2.2159  9.9664  6.3179  6.7477 1.44479  8.566 16.070 31.415 28.220  4.8409 50.3122 10.9324
 1997 296   121   119   9033 26.6455  2.1539 10.5005  6.4591  6.3669 1.67144  8.481 15.917 31.047 27.116  4.8439 50.3057 10.9196
 1997 297   122   120   9110 25.5399  2.2052  9.7350  5.9924  6.9283 1.59094  8.383 15.739 32.185 28.536  4.8499 50.2996 10.8884
 1997 298   123   121   9220 25.0115  0.0000  4.5646  3.0088  6.5851 7.85239  9.189 17.522 31.904 27.694  4.8256 50.3517 10.9881

*DSSAT Cropping System Model Ver. 4.5.1.023 -Stub         DEC 04, 2014; 01:35:35
                                                                                
*RUN   5        : 97 DATE3 CHINESE          CRGRO045 GHNY9701    5              
 MODEL          : CRGRO045 - Peanut                                             
 EXPERIMENT     : GHNY9701 PN 1997 VARIETY X PLANTING DATE EXPERIMENT           
 DATA PATH      :                                                               
 TREATMENT  5   : 97 DATE3 CHINESE          CRGRO045                            
  
@YEAR DOY   DAS   DAP   TWAD    PHAD    CMAD    CGRD    GRAD    MRAD    CHAD   CL%D   CS%D   TGNN   TGAV    GN%D    GL%D    GC%D
 1997 205     2     0      0  0.0000  0.0000  0.0000  0.0000  0.0000 0.00000  0.000  0.000 30.200 26.861  0.0000  0.0000  0.0000
 1997 206     3     1      0  0.0000  0.0000  0.0000  0.0000  0.0000 0.00000  0.000  0.000 28.643 25.624  0.0000  0.0000  0.0000
 1997 207     4     2      0  0.0000  0.0000  0.0000  0.0000  0.0000 0.00000  0.000  0.000 30.562 27.365  0.0000  0.0000  0.0000
 1997 208     5     3      0  0.0000  0.0000  0.0000  0.0000  0.0000 0.00000  0.000  0.000 31.061 27.865  0.0000  0.0000  0.0000
 1997 209     6     4      0  0.0000  0.0000  0.0000  0.0000  0.0000 0.00000  0.000  0.000 30.560 27.364  0.0000  0.0000  0.0000
 1997 210     7     5      0  0.0000  0.0000  0.0000  0.0000  0.0000 0.00000  0.000  0.000 29.800 27.136  0.0000  0.0000  0.0000
 1997 211     8     6      0  0.0000  0.0000  0.0000  0.0000  0.0000 0.00000  0.000  0.000 28.299 25.635  0.0000  0.0000  0.0000
 1997 212     9     7     20  0.0000  0.0010  0.0011  0.0001  0.0000 0.00000  2.958  5.913 26.118 24.165  0.0000  0.0000  0.0000
 1997 213    10     8     21  0.2031  0.0010  0.1822  0.0231  0.0204 0.00000  2.934  5.827 26.798 25.023  0.0000  0.0000  0.0000
 1997 214    11     9     24  0.3908  0.0011  0.2647  0.0769  0.0336 0.00000  2.906  5.754 29.651 26.669  0.0000  0.0000  0.0000
 1997 215    12    10     26  0.4034  0.0012  0.2740  0.0838  0.0386 0.00000  2.901  5.690 31.617 27.676  0.0000  0.0000  0.0000
 1997 216    13    11     29  0.3844  0.0013  0.2605  0.0799  0.0365 0.00000  2.894  5.628 28.648 26.766  0.0000  0.0000  0.0000
 1997 217    14    12     32  0.5177  0.0014  0.3788  0.1007  0.0431 0.00000  2.891  5.586 28.793 26.131  0.0000  0.0000  0.0000
 1997 218    15    13     35  0.4443  0.0014  0.2846  0.0993  0.0367 0.00000  2.884  5.547 26.873 24.388  0.0000  0.0000  0.0000
 1997 219    16    14     39  0.7056  0.0000  0.4776  0.1268  0.0560 0.00679  3.208  5.829 28.791 26.129  0.0000  0.0000  0.0000
 1997 220    17    15     46  0.9621  0.0000  0.5590  0.1510  0.0691 0.11557  7.452  8.826 28.900 25.599  0.0000  0.0000  0.0000
 1997 221    18    16     52  0.9513  0.0041  0.6368  0.1767  0.0799 0.00000  6.942  8.088 30.044 27.063  0.0000  0.0000  0.0000
 1997 222    19    17     59  1.2035  0.0000  0.7894  0.2164  0.0923 0.01561  7.054  7.836 28.869 26.385  0.0000  0.0000  0.0000
 1997 223    20    18     68  1.3454  0.0050  0.9249  0.2577  0.1054 0.00000  6.650  7.268 29.458 26.513  0.0000  0.0000  0.0000
 1997 224    21    19     77  1.3683  0.0054  0.9159  0.2822  0.1087 0.00000  6.188  6.958 28.770 26.073  0.0000  0.0000  0.0000
 1997 225    22    20     86  1.5832  0.0060  1.0362  0.3309  0.1318 0.00000  5.776  6.704 29.382 26.934  0.0000  0.0000  0.0000
 1997 226    23    21     97  1.7811  0.0064  1.1239  0.3813  0.1531 0.00000  5.415  6.497 30.203 27.365  0.0000  0.0000  0.0000
 1997 227    24    22    105  1.4517  0.0068  0.8663  0.3238  0.1232 0.00000  5.160  6.345 26.751 25.332  0.0000  0.0000  0.0000
 1997 228    25    23    119  2.2742  0.0069  1.5053  0.4672  0.1948 0.00000  4.862  6.205 31.921 27.381  0.0000  0.0000  0.0000
 1997 229    26    24    132  2.2550  0.0081  1.3468  0.5022  0.1937 0.00000  4.627  6.089 29.362 26.879  0.0000  0.0000  0.0000
 1997 230    27    25    150  2.8443  0.0086  1.8675  0.5822  0.2538 0.00255  4.414  6.032 32.128 28.050  0.0000  0.0000  0.0000
 1997 231    28    26    170  3.2181  0.0092  2.0898  0.6799  0.2462 0.00904  4.265  6.065 29.034 25.843  0.0000  0.0000  0.0000
 1997 232    29    27    191  3.5422  0.0106  2.1960  0.7711  0.2733 0.01698  4.169  6.164 28.359 25.877  0.0000  0.0000  0.0000
 1997 233    30    28    217  4.3922  0.0125  2.7484  0.9019  0.3914 0.02973  4.145  6.350 31.917 28.478  0.0000  0.0000  0.0000
 1997 234    31    29    240  4.1456  0.0142  2.3678  0.9167  0.3930 0.03627  4.120  6.531 31.866 28.321  0.0000  0.0000  0.0000
 1997 235    32    30    256  2.9341  0.0158  1.6850  0.6236  0.3190 0.03178  4.112  6.646 30.865 27.320  0.0000  0.0000  0.0000
 1997 236    33    31    285  4.9197  0.0168  2.9874  1.0515  0.4138 0.06313  4.154  6.919 29.945 26.578  0.0000  0.0000  0.0000
 1997 237    34    32    321  5.9740  0.0199  3.7447  1.2223  0.5174 0.08841  4.238  7.261 30.860 27.529  0.0000  0.0000  0.0000
 1997 238    35    33    354  5.8962  0.0226  3.3546  1.3009  0.5084 0.10064  4.311  7.565 29.975 26.679  0.0000  0.0000  0.0000
 1997 239    36    34    394  6.7984  0.0267  4.1318  1.4119  0.6113 0.12954  4.411  7.899 30.940 27.574  0.0000  0.0000  0.0000
 1997 240    37    35    425  5.6049  0.0286  3.1728  1.2071  0.5308 0.11785  4.484  8.143 30.528 26.277  0.0000  0.0000  0.0000
 1997 241    38    36    477  8.4209  0.0339  5.2383  1.7065  0.7036 0.19447  4.638  8.566 29.769 26.687  0.0000  0.0000  0.0000
 1997 242    39    37    529  8.9179  0.0403  5.3319  1.8677  0.7529 0.22448  4.773  8.937 28.913 26.575  0.0000  0.0000  0.0000
 1997 243    40    38    586  9.8561  0.0461  5.7570  2.0784  0.8433 0.26712  4.925  9.334 29.632 26.692  0.0000  0.0000  0.0000
 1997 244    41    39    644 10.3680  0.0539  5.8065  2.2161  0.9802 0.29831  5.058  9.686 31.350 27.809  0.0000  0.0000  0.0000
 1997 245    42    40    706 10.9917  0.0624  6.3543  2.3023  0.9837 0.33905  5.200 10.032 29.344 26.865  0.0000  0.0000  0.0000
 1997 246    43    41    759  9.3794  0.0694  5.3189  1.9641  0.8662 0.30462  5.305 10.283 27.674 25.691  0.0000  0.0000  0.0000
 1997 247    44    42    815 10.1715  0.0787  5.7301  2.1045  0.9987 0.34549  5.416 10.545 28.924 26.623  0.0000  0.0000  0.0000
 1997 248    45    43    896 13.5085  0.0855  8.2627  2.6326  1.2698 0.48407  5.584 10.916 30.843 27.303  0.0000  0.0000  0.0000
 1997 249    46    44    965 12.6255  0.0956  7.0334  2.6161  1.2143 0.47168  5.726 11.219 29.924 26.562  0.0000  0.0000  0.0000
 1997 250    47    45   1047 14.4584  0.1090  8.3698  2.9274  1.3039 0.56853  5.893 11.560 29.088 26.080  0.0000  0.0000  0.0000
 1997 251    48    46   1144 16.5588  0.1287  9.9231  3.2263  1.5594 0.67546  6.066 11.921 30.087 27.079  4.4998 51.0000 12.3760
 1997 252    49    47   1217 13.5150  0.1493  7.4713  2.7014  1.4889 0.54984  6.172 12.138 30.169 27.338  4.5229 51.0000 12.2321
 1997 253    50    48   1304 16.0308  0.1605  8.8501  3.2862  1.5619 0.68026  6.296 12.414 29.167 26.337  4.4605 51.0000 12.6218
 1997 254    51    49   1393 16.3242  0.1777  9.0404  3.3571  1.5466 0.70225  6.415 12.667 27.916 25.617  4.3983 51.0000 13.0108
 1997 255    52    50   1502 19.1619  0.2002 10.9830  3.8143  1.8934 0.85230  6.556 12.967 29.997 26.814  4.4271 51.0000 12.8304
 1997 256    53    51   1612 20.2345  0.2307 11.1574  4.0385  2.2662 0.91977  6.691 13.252 31.912 28.553  4.5034 51.0000 12.3536
 1997 257    54    52   1713 18.8800  0.2398 10.3527  3.8920  1.8203 0.86398  6.805 13.484 28.162 25.333  4.4448 51.0000 12.7200
 1997 258    55    53   1827 21.3237  0.2778 11.5935  4.3196  2.3278 1.01034  6.931 13.741 30.909 27.550  4.4723 51.0000 12.5482
 1997 259    56    54   1941 21.4497  0.2897 11.5679  4.4519  2.1450 1.02477  7.049 13.980 29.323 25.788  4.4440 51.0000 12.7253
 1997 260    57    55   2059 22.4680  0.3277 12.0514  4.6381  2.3810 1.09176  7.164 14.209 29.905 26.547  4.4431 51.0000 12.7309
 1997 261    58    56   2131 14.5327  0.3419  8.0421  2.9429  1.7148 0.56314  7.187 14.217 25.744 24.153  4.3853 51.0000 13.0919
 1997 262    59    57   2238 21.2268  0.3770 11.1632  4.4646  2.3524 0.96949  7.266 14.364 28.738 26.088  4.3858 51.0000 13.0887
 1997 263    60    58   2337 20.4036  0.4156 10.5613  4.2337  2.6343 0.89960  7.325 14.462 30.569 27.565  4.4153 51.0000 12.9041
 1997 264    61    59   2461 24.6926  0.4435 12.8413  5.0923  3.1331 1.19218  7.425 14.653 31.899 28.542  4.4559 51.0000 12.6506
 1997 265    62    60   2577 24.0693  0.4804 12.1401  5.0367  3.2372 1.12703  7.501 14.794 31.981 28.802  4.4921 51.0000 12.4241
 1997 266    63    61   2633 13.5520  0.4658  7.0322  2.9546  1.9885 0.30832  7.462 14.660 26.817 24.345  4.4440 51.0000 12.7252
 1997 267    64    62   2748 24.2633  0.5048 12.0576  5.3199  3.0039 1.06400  7.526 14.776 30.376 26.987  4.4505 51.0000 12.6845
 1997 268    65    63   2813 15.8646  0.5132  8.0436  3.5644  2.2614 0.37498  7.492 14.654 27.315 24.844  4.4215 51.0000 12.8657
 1997 269    66    64   2913 22.5559  0.5369 10.8858  5.0306  3.1255 0.86252  7.522 14.694 31.500 27.335  4.4351 51.0000 12.7808
 1997 270    67    65   3031 26.1200  0.5833 12.5489  5.6876  3.8130 1.15195  7.589 14.817 32.803 29.274  4.4714 51.0000 12.5538
 1997 271    68    66   3147 25.7648  0.5665 12.3812  5.9263  3.1514 1.04709  7.642 14.910 30.377 25.967  4.4596 51.0000 12.6274
 1997 272    69    67   3259 25.9931  0.6431 12.1338  5.8667  3.8612 1.04451  7.680 14.968 32.300 28.772  4.4851 51.0000 12.4679
 1997 273    70    68   3364 25.0769  0.6635 11.7188  5.7979  3.6480 0.90975  7.698 14.977 31.298 27.771  4.4954 51.0000 12.4040
 1997 274    71    69   3471 25.8048  0.7029 11.8728  5.9021  4.0694 0.97252  7.719 14.994 32.051 29.054  4.5183 51.0000 12.2604
 1997 275    72    70   3582 26.9988  0.7263 12.3167  6.1894  4.2885 1.05798  7.749 15.032 32.465 29.292  4.5406 51.0000 12.1214
 1997 276    73    71   3672 22.6398  0.6706 10.6702  5.6485  2.8216 0.63914  7.738 14.964 26.634 23.814  4.4978 51.0000 12.3887
 1997 277    74    72   3771 24.8001  0.7059 11.4833  6.0782  3.4378 0.70338  7.730 14.907 29.948 25.720  4.4833 51.0000 12.4792
 1997 278    75    73   3823 15.6766  0.0000  4.8529  3.7968  3.0028 2.07892  8.254 15.999 29.532 25.480  4.5825 50.7655 12.0941
 1997 279    76    74   3923 26.1369  0.8072 11.7031  6.4607  3.8836 0.73916  8.227 15.897 30.995 26.874  4.5734 50.7856 12.1305
 1997 280    77    75   4022 25.6190  0.8041 11.5854  6.4824  3.5301 0.76327  8.211 15.813 28.968 25.411  4.5509 50.8040 12.2529
 1997 281    78    76   4067 15.3650  0.0000  4.9581  3.6674  3.5798 1.38545  8.575 16.524 30.541 27.548  4.6229 50.6691 11.9375
 1997 282    79    77   4152 24.3238  0.9353 10.6499  6.2166  4.3266 0.72316  8.534 16.376 30.866 28.542  4.6710 50.6017 11.7047
 1997 283    80    78   4238 24.6250  0.9420 10.6484  6.3033  4.4885 0.74208  8.492 16.235 31.658 28.913  4.7123 50.5504 11.4976
 1997 284    81    79   4325 24.9441  0.9525 10.6115  6.5048  4.5075 0.76113  8.450 16.099 31.491 28.817  4.7505 50.5008 11.3087
 1997 285    82    80   4403 23.7163  0.8300  9.6028  6.2542  4.4246 0.74566  8.436 16.025 32.028 28.615  4.7823 50.4577 11.1526
 1997 286    83    81   4486 24.6849  0.9538  9.9878  6.5347  4.4257 0.79359  8.393 15.903 32.005 28.347  4.7733 50.4928 11.1739
 1997 287    84    82   4547 19.3254  0.0000  6.1933  4.9622  3.9920 1.54334  8.766 16.643 30.652 27.910  4.8184 50.4073 10.9776
 1997 288    85    83   4635 24.2490  0.0000  7.4847  6.4146  3.8244 2.88985  9.420 18.012 29.688 26.207  4.8675 50.2893 10.7890
 1997 289    86    84   4718 24.4892  0.9673  9.9314  6.6648  4.1898 0.83306  9.387 17.894 31.296 27.429  4.8795 50.2665 10.7369
 1997 290    87    85   4775 18.2193  0.0000  5.5087  4.6381  3.9860 1.61397  9.771 18.652 31.336 27.963  4.9109 50.2084 10.5983
 1997 291    88    86   4831 18.3768  0.0000  5.9196  4.6550  4.2977 1.04115 10.024 19.109 33.283 28.997  4.9385 50.1671 10.4671
 1997 292    89    87   4894 18.4525  0.0000  5.5388  4.7550  3.4225 2.14212 10.508 20.082 28.837 25.676  4.9653 50.0958 10.3712
 1997 293    90    88   4949 17.8314  0.0000  5.4221  4.6457  3.9182 1.34509 10.830 20.691 31.262 27.750  4.9893 50.0501 10.2670
 1997 294    91    89   4999 17.0564  0.0000  5.4473  4.4715  3.9272 0.82934 11.041 21.050 31.590 27.939  5.0102 50.0118 10.1746
 1997 295    92    90   5065 21.5931  1.4020  8.6171  5.9065  4.2405 0.78915 10.897 20.722 31.415 28.220  5.0158 50.0078 10.1435
 1997 296    93    91   5135 21.6900  1.3602  8.7835  6.0009  3.9796 0.81158 10.760 20.414 31.047 27.116  5.0170 50.0030 10.1408
 1997 297    94    92   5200 21.0373  1.3218  8.1556  5.7088  4.3265 0.79306 10.629 20.128 32.185 28.536  5.0223 50.0010 10.1095
 1997 298    95    93   5265 20.5343  0.0000  6.8227  5.5538  4.0976 0.89273 10.827 20.480 31.904 27.694  5.0412 49.9642 10.0284
 1997 299    96    94   5332 20.7316  1.3965  8.2078  5.6135  4.2588 0.81634 10.676 20.161 32.727 28.167  5.0459 49.9596 10.0037
 1997 300    97    95   5394 19.8811  1.4016  7.9492  5.4379  3.9038 0.78427 10.523 19.842 30.697 27.085  5.0449 49.9593 10.0104
 1997 301    98    96   5457 20.1484  1.4251  7.9554  5.4112  4.2286 0.82630 10.369 19.523 31.423 28.268  5.0484 49.9570  9.9902
 1997 302    99    97   5521 19.8555  1.4151  7.8271  5.2470  4.2542 0.90548 10.228 19.235 31.781 28.346  5.0513 49.9564  9.9732
 1997 303   100    98   5585 19.4713  1.3946  7.7209  5.0812  4.0903 0.99532 10.104 18.984 31.569 27.714  5.0527 49.9547  9.9659
 1997 304   101    99   5639 17.5655  1.3974  6.8062  4.5845  3.8937 0.74897  9.943 18.664 30.908 27.334  5.0414 49.9772 10.0140
 1997 305   102   100   5734 19.1305  0.0000  3.4377  2.2529  3.9159 6.99009 11.261 21.525 30.170 27.122  5.0049 50.0511 10.1684

*DSSAT Cropping System Model Ver. 4.5.1.023 -Stub         DEC 04, 2014; 01:35:35
                                                                                
*RUN   6        : 97 DATE3 F-MIX            CRGRO045 GHNY9701    6              
 MODEL          : CRGRO045 - Peanut                                             
 EXPERIMENT     : GHNY9701 PN 1997 VARIETY X PLANTING DATE EXPERIMENT           
 DATA PATH      :                                                               
 TREATMENT  6   : 97 DATE3 F-MIX            CRGRO045                            
  
@YEAR DOY   DAS   DAP   TWAD    PHAD    CMAD    CGRD    GRAD    MRAD    CHAD   CL%D   CS%D   TGNN   TGAV    GN%D    GL%D    GC%D
 1997 205     2     0      0  0.0000  0.0000  0.0000  0.0000  0.0000 0.00000  0.000  0.000 30.200 26.861  0.0000  0.0000  0.0000
 1997 206     3     1      0  0.0000  0.0000  0.0000  0.0000  0.0000 0.00000  0.000  0.000 28.643 25.624  0.0000  0.0000  0.0000
 1997 207     4     2      0  0.0000  0.0000  0.0000  0.0000  0.0000 0.00000  0.000  0.000 30.562 27.365  0.0000  0.0000  0.0000
 1997 208     5     3      0  0.0000  0.0000  0.0000  0.0000  0.0000 0.00000  0.000  0.000 31.061 27.865  0.0000  0.0000  0.0000
 1997 209     6     4      0  0.0000  0.0000  0.0000  0.0000  0.0000 0.00000  0.000  0.000 30.560 27.364  0.0000  0.0000  0.0000
 1997 210     7     5      0  0.0000  0.0000  0.0000  0.0000  0.0000 0.00000  0.000  0.000 29.800 27.136  0.0000  0.0000  0.0000
 1997 211     8     6      0  0.0000  0.0000  0.0000  0.0000  0.0000 0.00000  0.000  0.000 28.299 25.635  0.0000  0.0000  0.0000
 1997 212     9     7      0  0.0000  0.0000  0.0000  0.0000  0.0000 0.00000  0.000  0.000 26.118 24.165  0.0000  0.0000  0.0000
 1997 213    10     8     25  0.0000  0.0013  0.0014  0.0002  0.0000 0.00000  2.955  5.908 26.798 25.023  0.0000  0.0000  0.0000
 1997 214    11     9     28  0.4246  0.0013  0.3209  0.0732  0.0374 0.00000  2.935  5.834 29.651 26.669  0.0000  0.0000  0.0000
 1997 215    12    10     31  0.4368  0.0014  0.3190  0.0759  0.0431 0.00000  2.909  5.771 31.617 27.676  0.0000  0.0000  0.0000
 1997 216    13    11     33  0.3855  0.0016  0.2778  0.0744  0.0393 0.00000  2.900  5.695 28.648 26.766  0.0000  0.0000  0.0000
 1997 217    14    12     36  0.5173  0.0016  0.3727  0.1023  0.0458 0.00000  2.895  5.636 28.793 26.131  0.0000  0.0000  0.0000
 1997 218    15    13     39  0.4382  0.0016  0.2922  0.0936  0.0388 0.00000  2.887  5.583 26.873 24.388  0.0000  0.0000  0.0000
 1997 219    16    14     44  0.7190  0.0018  0.5192  0.1347  0.0593 0.00000  2.880  5.584 28.791 26.129  0.0000  0.0000  0.0000
 1997 220    17    15     50  0.9972  0.0000  0.6668  0.1686  0.0735 0.02534  3.808  6.253 28.900 25.599  0.0000  0.0000  0.0000
 1997 221    18    16     57  0.9744  0.0029  0.6785  0.1860  0.0842 0.00000  3.699  6.124 30.044 27.063  0.0000  0.0000  0.0000
 1997 222    19    17     65  1.2424  0.0031  0.8692  0.2313  0.0975 0.00000  3.604  6.020 28.869 26.385  0.0000  0.0000  0.0000
 1997 223    20    18     74  1.3925  0.0035  0.9460  0.2662  0.1114 0.00000  3.526  5.942 29.458 26.513  0.0000  0.0000  0.0000
 1997 224    21    19     82  1.4076  0.0040  0.8806  0.2863  0.1142 0.00000  3.461  5.880 28.770 26.073  0.0000  0.0000  0.0000
 1997 225    22    20     92  1.5447  0.0046  1.0326  0.3130  0.1334 0.00000  3.379  5.815 29.382 26.934  0.0000  0.0000  0.0000
 1997 226    23    21    102  1.7443  0.0050  1.1312  0.3620  0.1548 0.00000  3.307  5.759 30.203 27.365  0.0000  0.0000  0.0000
 1997 227    24    22    110  1.4033  0.0054  0.8428  0.3084  0.1241 0.00000  3.251  5.704 26.751 25.332  0.0000  0.0000  0.0000
 1997 228    25    23    124  2.2318  0.0056  1.4875  0.4525  0.1960 0.00000  3.195  5.676 31.921 27.381  0.0000  0.0000  0.0000
 1997 229    26    24    137  2.2096  0.0067  1.3314  0.4860  0.1945 0.00000  3.147  5.640 29.362 26.879  0.0000  0.0000  0.0000
 1997 230    27    25    154  2.7942  0.0072  1.8448  0.5675  0.2543 0.00000  3.104  5.620 32.128 28.050  0.0000  0.0000  0.0000
 1997 231    28    26    174  3.1885  0.0078  2.1024  0.6673  0.2474 0.00000  3.066  5.606 29.034 25.843  0.0000  0.0000  0.0000
 1997 232    29    27    195  3.5236  0.0090  2.2287  0.7621  0.2750 0.00000  3.033  5.591 28.359 25.877  0.0000  0.0000  0.0000
 1997 233    30    28    222  4.3751  0.0106  2.8066  0.9011  0.3936 0.00264  3.013  5.598 31.917 28.478  0.0000  0.0000  0.0000
 1997 234    31    29    245  4.1777  0.0120  2.4115  0.9282  0.3981 0.01011  3.021  5.660 31.866 28.321  0.0000  0.0000  0.0000
 1997 235    32    30    261  2.9121  0.0133  1.6900  0.6207  0.3210 0.01238  3.033  5.706 30.865 27.320  0.0000  0.0000  0.0000
 1997 236    33    31    290  4.9885  0.0141  3.1115  1.0597  0.4202 0.03021  3.095  5.878 29.945 26.578  0.0000  0.0000  0.0000
 1997 237    34    32    328  6.0915  0.0166  3.8942  1.2491  0.5275 0.04813  3.185  6.107 30.860 27.529  0.0000  0.0000  0.0000
 1997 238    35    33    362  6.0481  0.0190  3.5009  1.3410  0.5204 0.05871  3.272  6.328 29.975 26.679  0.0000  0.0000  0.0000
 1997 239    36    34    403  6.9980  0.0224  4.3033  1.4671  0.6274 0.08060  3.381  6.585 30.940 27.574  0.0000  0.0000  0.0000
 1997 240    37    35    435  5.7314  0.0240  3.2826  1.2464  0.5427 0.07624  3.461  6.775 30.528 26.277  0.0000  0.0000  0.0000
 1997 241    38    36    488  8.6942  0.0285  5.4205  1.7929  0.7237 0.13191  3.607  7.110 29.769 26.687  0.0000  0.0000  0.0000
 1997 242    39    37    542  9.2207  0.0339  5.5396  1.9642  0.7750 0.15757  3.746  7.422 28.913 26.575  0.0000  0.0000  0.0000
 1997 243    40    38    600 10.2044  0.0389  5.9853  2.1845  0.8690 0.19541  3.898  7.765 29.632 26.692  0.0000  0.0000  0.0000
 1997 244    41    39    660 10.7414  0.0457  6.1092  2.3200  1.0105 0.22478  4.037  8.078 31.350 27.809  0.0000  0.0000  0.0000
 1997 245    42    40    726 11.4468  0.0532  6.7415  2.4206  1.0176 0.26357  4.182  8.392 29.344 26.865  0.0000  0.0000  0.0000
 1997 246    43    41    780  9.7749  0.0596  5.5797  2.0897  0.8964 0.24595  4.291  8.627 27.674 25.691  0.0000  0.0000  0.0000
 1997 247    44    42    839 10.6604  0.0679  6.0384  2.2574  1.0372 0.28773  4.406  8.878 28.924 26.623  0.0000  0.0000  0.0000
 1997 248    45    43    927 14.3013  0.0743  8.9878  2.7994  1.3284 0.41276  4.571  9.231 30.843 27.303  0.0000  0.0000  0.0000
 1997 249    46    44   1002 13.4571  0.0839  7.5385  2.8568  1.2764 0.40821  4.703  9.518 29.924 26.562  0.0000  0.0000  0.0000
 1997 250    47    45   1093 15.5692  0.0936  9.3402  3.1634  1.3810 0.50119  4.872  9.845 29.088 26.080  0.0000  0.0000  0.0000
 1997 251    48    46   1199 17.8681  0.1096 10.8403  3.5495  1.6582 0.60439  5.046 10.194 30.087 27.079  0.0000  0.0000  0.0000
 1997 252    49    47   1277 14.6303  0.1261  8.1192  2.9888  1.5847 0.51764  5.167 10.426 30.169 27.338  0.0000  0.0000  0.0000
 1997 253    50    48   1372 17.5194  0.1342  9.7346  3.6526  1.6737 0.65364  5.312 10.718 29.167 26.337  0.0000  0.0000  0.0000
 1997 254    51    49   1471 17.9270  0.1476 10.0063  3.7255  1.6627 0.70177  5.447 10.998 27.916 25.617  0.0000  0.0000  0.0000
 1997 255    52    50   1596 21.1932  0.1705 12.7127  4.1234  2.0487 0.86175  5.604 11.321 29.997 26.814  4.4699 51.0000 12.5629
 1997 256    53    51   1722 22.4397  0.1994 12.6636  4.4449  2.4628 0.93989  5.748 11.626 31.912 28.553  4.5652 51.0000 11.9674
 1997 257    54    52   1839 21.0371  0.2081 11.6916  4.3169  1.9847 0.92268  5.870 11.886 28.162 25.333  4.4066 51.0000 12.9585
 1997 258    55    53   1971 23.8801  0.2453 13.3725  4.7519  2.5518 1.07169  6.004 12.163 30.909 27.550  4.4754 51.0000 12.5287
 1997 259    56    54   2105 24.1455  0.2570 13.3500  4.9161  2.3622 1.12205  6.130 12.427 29.323 25.788  4.4260 51.0000 12.8374
 1997 260    57    55   2244 25.3789  0.2952 13.9888  5.1163  2.6329 1.20746  6.252 12.679 29.905 26.547  4.4310 51.0000 12.8061
 1997 261    58    56   2329 16.2011  0.3096  9.1915  3.1014  1.8840 0.75640  6.306 12.763 25.744 24.153  4.3433 51.0000 13.3541
 1997 262    59    57   2458 24.0888  0.3481 13.1344  4.8329  2.6142 1.18363  6.406 12.962 28.738 26.088  4.3561 51.0000 13.2741
 1997 263    60    58   2579 23.0969  0.3902 12.4525  4.5064  2.9302 1.14331  6.489 13.120 30.569 27.565  4.4056 51.0000 12.9650
 1997 264    61    59   2730 28.3331  0.4224 15.3620  5.5261  3.5194 1.46387  6.606 13.352 31.899 28.542  4.4636 51.0000 12.6026
 1997 265    62    60   2873 27.5917  0.4640 14.5603  5.4059  3.6430 1.44149  6.703 13.544 31.981 28.802  4.5114 51.0000 12.3035
 1997 266    63    61   2947 15.2368  0.4503  8.5984  2.7901  2.2222 0.70760  6.725 13.545 26.817 24.345  4.4423 51.0000 12.7357
 1997 267    64    62   3093 28.1288  0.5015 14.8837  5.6280  3.4126 1.51267  6.823 13.738 30.376 26.987  4.4513 51.0000 12.6793
 1997 268    65    63   3180 18.0670  0.5155  9.9541  3.4216  2.5547 0.87250  6.854 13.760 27.315 24.844  4.4130 51.0000 12.9185
 1997 269    66    64   3312 26.2029  0.5526 13.7264  5.1555  3.5712 1.40918  6.933 13.905 31.500 27.335  4.4318 51.0000 12.8010
 1997 270    67    65   3466 30.7313  0.6151 15.8334  6.0005  4.3976 1.72975  7.032 14.101 32.803 29.274  4.4779 51.0000 12.5130
 1997 271    68    66   3623 30.5953  0.6005 16.0449  6.1728  3.6594 1.75669  7.135 14.300 30.377 25.967  4.4624 51.0000 12.6102
 1997 272    69    67   3774 30.7407  0.7034 15.7349  6.0228  4.4929 1.76333  7.220 14.457 32.300 28.772  4.4935 51.0000 12.4157
 1997 273    70    68   3920 29.6906  0.7383 15.2992  5.8573  4.2606 1.70270  7.294 14.587 31.298 27.771  4.5049 51.0000 12.3443
 1997 274    71    69   4067 30.6894  0.8010 15.5420  5.9867  4.7782 1.78937  7.366 14.712 32.051 29.054  4.5316 51.0000 12.1772
 1997 275    72    70   4222 32.4086  0.8435 16.2790  6.3484  5.0718 1.93692  7.443 14.853 32.465 29.292  4.5571 51.0000 12.0184
 1997 276    73    71   4354 27.2153  0.7801 14.4221  5.5618  3.3479 1.53647  7.500 14.934 26.634 23.814  4.5035 51.0000 12.3533
 1997 277    74    72   4498 29.9858  0.8445 15.4479  6.0855  4.1042 1.74940  7.564 15.037 29.948 25.720  4.4854 51.0000 12.4660
 1997 278    75    73   4573 18.4018  0.8831  9.6602  3.5534  3.5680 0.73994  7.539 14.933 29.532 25.480  4.4670 51.0000 12.5811
 1997 279    76    74   4724 32.1838  0.9326 16.1017  6.5481  4.6929 1.91380  7.605 15.048 30.995 26.874  4.4680 51.0000 12.5749
 1997 280    77    75   4875 31.8776  0.9524 16.2060  6.5885  4.2986 1.86336  7.668 15.150 28.968 25.411  4.4521 51.0000 12.6742
 1997 281    78    76   4939 18.2648  1.0674  9.1305  3.4459  4.3194 0.64144  7.616 14.990 30.541 27.548  4.4615 51.0000 12.6157
 1997 282    79    77   5070 30.2648  1.0987 14.7120  6.0949  5.3247 1.69871  7.649 15.028 30.866 28.542  4.4794 51.0000 12.5040
 1997 283    80    78   5203 30.9492  1.1326 14.9076  6.2047  5.6023 1.77646  7.685 15.075 31.658 28.913  4.4984 51.0000 12.3853
 1997 284    81    79   5340 31.7829  1.1730 15.3012  6.4121  5.7136 1.85521  7.724 15.129 31.491 28.817  4.5145 51.0000 12.2843
 1997 285    82    80   5467 30.3081  1.1971 14.4067  6.1639  5.6823 1.68317  7.746 15.147 32.028 28.615  4.5270 51.0000 12.2061
 1997 286    83    81   5603 32.1567  1.2228 15.2740  6.6066  5.7929 1.86375  7.781 15.194 32.005 28.347  4.5359 51.0000 12.1505
 1997 287    84    82   5693 24.5931  1.2802 11.6682  5.1056  5.2747 1.02905  7.746 15.076 30.652 27.910  4.5404 51.0000 12.1227
 1997 288    85    83   5833 32.6112  1.2328 15.6780  7.0099  5.1841 1.85219  7.783 15.127 29.688 26.207  4.5297 51.0000 12.1894
 1997 289    86    84   5973 33.6218  1.2940 15.7427  7.1613  5.7961 1.92992  7.817 15.178 31.296 27.429  4.5304 51.0000 12.1851
 1997 290    87    85   6052 23.9312  1.3613 10.9074  5.1807  5.5394 0.77681  7.755 15.004 31.336 27.963  4.5353 51.0000 12.1544
 1997 291    88    86   6131 24.3874  1.3507 10.8331  5.1764  6.0469 0.85421  7.699 14.849 33.283 28.997  4.5470 51.0000 12.0809
 1997 292    89    87   6218 25.1714  1.3141 11.6488  5.8065  4.8944 0.79964  7.646 14.697 28.837 25.676  4.5324 51.0000 12.1722
 1997 293    90    88   6294 24.3345  1.3685 10.7070  5.4736  5.6503 0.74433  7.580 14.523 31.262 27.750  4.5352 51.0000 12.1550
 1997 294    91    89   6365 23.4560  1.3692 10.1294  5.2936  5.7082 0.72991  7.513 14.348 31.590 27.939  4.5390 51.0000 12.1313
 1997 295    92    90   6482 31.6797  1.3861 13.7860  7.1304  6.2796 1.47030  7.505 14.316 31.415 28.220  4.5443 51.0000 12.0978
 1997 296    93    91   6610 32.8626  1.3659 14.6692  7.3662  5.9943 1.73276  7.525 14.344 31.047 27.116  4.5421 51.0000 12.1122
 1997 297    94    92   6725 31.4994  1.4351 13.6150  6.9927  6.5480 1.54887  7.520 14.321 32.185 28.536  4.5485 51.0000 12.0717
 1997 298    95    93   6838 31.0228  1.4265 13.4205  7.0166  6.2606 1.46811  7.509 14.286 31.904 27.694  4.5496 51.0000 12.0650
 1997 299    96    94   6956 32.1661  1.4442 13.7252  7.2083  6.5952 1.64121  7.510 14.281 32.727 28.167  4.5532 51.0000 12.0427
 1997 300    97    95   7067 30.8820  1.4815 13.4024  7.1202  6.0795 1.43629  7.492 14.231 30.697 27.085  4.5505 51.0000 12.0592
 1997 301    98    96   7180 31.9030  1.5387 13.5193  7.2724  6.6543 1.52577  7.475 14.187 31.423 28.268  4.5545 51.0000 12.0345
 1997 302    99    97   7291 31.6293  1.5527 13.3022  7.2081  6.7363 1.50514  7.455 14.138 31.781 28.346  4.5585 51.0000 12.0094
 1997 303   100    98   7401 31.2427  1.5475 13.2168  7.1699  6.5133 1.49142  7.436 14.089 31.569 27.714  4.5591 51.0000 12.0058
 1997 304   101    99   7487 27.3924  1.5672 11.5128  6.4392  6.1768 0.97999  7.372 13.939 30.908 27.334  4.5578 51.0000 12.0140
 1997 305   102   100   7597 31.2525  1.5789 13.2033  7.3078  6.2947 1.47456  7.348 13.884 30.170 27.122  4.5555 51.0000 12.0280
 1997 306   103   101   7677 26.8317  1.6104 10.9353  6.1261  6.8030 0.97522  7.279 13.726 32.240 28.737  4.5605 51.0000 11.9969
 1997 307   104   102   7784 31.3196  1.6170 13.0263  7.2330  6.6162 1.55011  7.257 13.681 30.379 27.752  4.5611 51.0000 11.9933
 1997 308   105   103   7888 31.0022  1.6235 12.5001  6.9904  7.2319 1.56206  7.235 13.638 32.649 28.972  4.5665 51.0000 11.9596
 1997 309   106   104   7982 29.6271  1.6510 11.8096  6.7096  7.1868 1.38114  7.201 13.572 32.324 28.998  4.5716 51.0000 11.9275
 1997 310   107   105   7975 10.0782  1.6293  2.9467  1.8378  6.0808 0.00000  7.028 13.213 33.292 28.917  4.5738 51.0000 11.9137
 1997 311   108   106   7963  8.5456  1.5936  2.2382  1.3959  5.8621 0.00000  6.852 12.856 32.879 28.679  4.5751 51.0000 11.9055
 1997 312   109   107   7948  7.8129  1.5871  1.6579  1.0340  6.2453 0.00000  6.670 12.496 33.319 29.995  4.5774 51.0000 11.8913
 1997 313   110   108   7930  6.3071  1.5487  1.0067  0.6279  5.9371 0.00000  6.487 12.140 32.818 29.495  4.5784 51.0000 11.8847
 1997 314   111   109   7884  5.2196  1.4936  0.5248  0.3273  5.7116 0.00000  6.302 11.782 32.998 29.045  4.5788 51.0000 11.8822
 1997 315   112   110   7836  4.6539  1.4331  0.3590  0.2239  5.4000 0.00000  6.122 11.434 32.619 28.317  4.5790 51.0000 11.8815
 1997 316   113   111   7786  4.1412  1.3952  0.0000  0.0000  5.5399 0.00000  5.943 11.090 33.282 28.911  4.5790 51.0000 11.8815
 1997 317   114   112   7736  3.8098  1.3200  0.0104  0.0065  5.1099 0.00000  5.771 10.760 32.678 27.714  4.5790 51.0000 11.8815
 1997 318   115   113   7686  3.3865  1.2825  0.0000  0.0000  5.0158 0.00000  5.602 10.435 32.512 27.618  4.5790 51.0000 11.8815
 1997 319   116   114   7635  3.1148  1.2580  0.0000  0.0000  5.0715 0.00000  5.434 10.112 32.634 27.986  4.5790 51.0000 11.8815
 1997 320   117   115   7586  3.0095  1.1851  0.0000  0.0000  4.9106 0.00000  5.275  9.804 32.988 27.467  4.5790 51.0000 11.8815
 1997 321   118   116   7538  2.8435  1.1568  0.0000  0.0000  4.8593 0.00000  5.117  9.501 32.792 27.482  4.5790 51.0000 11.8815
 1997 322   119   117   7489  2.4535  1.1399  0.0000  0.0000  5.1156 0.00000  4.960  9.198 33.662 28.492  4.5790 51.0000 11.8815
 1997 323   120   118   7442  2.5885  1.0934  0.0000  0.0000  4.4812 0.00000  4.808  8.904 31.181 26.641  4.5790 51.0000 11.8815
 1997 324   121   119   7396  2.0500  1.0650  0.0000  0.0000  4.8136 0.00000  4.659  8.615 32.912 27.848  4.5790 51.0000 11.8815
