*GROWTH ASPECTS OUTPUT FILE

*DSSAT Cropping System Model Ver. 4.5.1.023 -Stub         DEC 04, 2014; 01:35:34
                                                                                
*RUN   1        : 97 DATE1 CHINESE          CRGRO045 GHNY9701    1              
 MODEL          : CRGRO045 - Peanut                                             
 EXPERIMENT     : GHNY9701 PN 1997 VARIETY X PLANTING DATE EXPERIMENT           
 DATA PATH      :                                                               
 TREATMENT  1   : 97 DATE1 CHINESE          CRGRO045                            
  
!                                                                                                                                                                                                                                                    Root Dens. (cm/cm3) by soil depth (cm):
!                                                                                                                                                                                                                                                    0-5    5-15   15-30   30-45   45-60   60-90
@YEAR DOY   DAS   DAP   L#SD   GSTD   LAID   LWAD   SWAD   GWAD   RWAD   VWAD   CWAD   G#AD    GWGD   HIAD   PWAD   P#AD   WSPD   WSGD   NSTD  PST1A  PST2A   KSTD   EWSD    LN%D   SH%D   HIPD   PWDD   PWTD   SLAD   CHTD   CWID   NWAD   RDPD    RL1D    RL2D    RL3D    RL4D    RL5D    RL6D    SNW0C   SNW1C
 1997 149     2     0    0.0      0  0.000      0      0      0      0      0      0      0     0.0  0.000      0      0  0.000  0.000  0.000  0.000  0.000  0.000  0.000    0.00   0.00   0.00      0      0    0.0   0.00   0.00    0.0   0.00    0.00    0.00    0.00    0.00    0.00    0.00        0       0
 1997 150     3     1    0.0      0  0.000      0      0      0      0      0      0      0     0.0  0.000      0      0  0.000  0.000  0.000  0.000  0.000  0.000  0.000    0.00   0.00   0.00      0      0    0.0   0.00   0.00    0.0   0.00    0.00    0.00    0.00    0.00    0.00    0.00        0       0
 1997 151     4     2    0.0      0  0.000      0      0      0      0      0      0      0     0.0  0.000      0      0  0.000  0.000  0.000  0.000  0.000  0.000  0.000    0.00   0.00   0.00      0      0    0.0   0.00   0.00    0.0   0.00    0.00    0.00    0.00    0.00    0.00    0.00        0       0
 1997 152     5     3    0.0      0  0.000      0      0      0      0      0      0      0     0.0  0.000      0      0  0.000  0.000  0.000  0.000  0.000  0.000  0.000    0.00   0.00   0.00      0      0    0.0   0.00   0.00    0.0   0.00    0.00    0.00    0.00    0.00    0.00    0.00        0       0
 1997 153     6     4    0.0      0  0.000      0      0      0      0      0      0      0     0.0  0.000      0      0  0.000  0.000  0.000  0.000  0.000  0.000  0.000    0.00   0.00   0.00      0      0    0.0   0.00   0.00    0.0   0.00    0.00    0.00    0.00    0.00    0.00    0.00        0       0
 1997 154     7     5    0.0      0  0.000      0      0      0      0      0      0      0     0.0  0.000      0      0  0.000  0.000  0.000  0.000  0.000  0.000  0.000    0.00   0.00   0.00      0      0    0.0   0.00   0.00    0.0   0.00    0.00    0.00    0.00    0.00    0.00    0.00        0       0
 1997 155     8     6    0.0      0  0.000      0      0      0      0      0      0      0     0.0  0.000      0      0  0.000  0.000  0.000  0.000  0.000  0.000  0.000    0.00   0.00   0.00      0      0    0.0   0.00   0.00    0.0   0.00    0.00    0.00    0.00    0.00    0.00    0.00        0       0
 1997 156     9     7    0.0      0  0.000      0      0      0      0      0      0      0     0.0  0.000      0      0  0.000  0.000  0.000  0.000  0.000  0.000  0.000    0.00   0.00   0.00      0      0    0.0   0.00   0.00    0.0   0.00    0.00    0.00    0.00    0.00    0.00    0.00        0       0
 1997 157    10     8    0.3      0  0.013      9      2      0      9     11     11      0     0.0  0.000      0      0  0.000  0.000  0.000  0.000  0.000  0.000  0.000    5.36   0.00   0.00      0      0  145.6   0.02   0.03    1.4   0.27    0.03    0.03    0.02    0.00    0.00    0.00        0       0
 1997 158    11     9    0.6      0  0.017     10      2      0     10     12     12      0     0.0  0.000      0      0  0.000  0.000  0.110  0.000  0.000  0.000  0.000    5.31   0.00   0.00      0      0  171.6   0.03   0.04    1.5   0.29    0.03    0.03    0.02    0.00    0.00    0.00        0       0
 1997 159    12    10    0.9      0  0.022     11      2      0     10     14     14      0     0.0  0.000      0      0  0.000  0.000  0.051  0.000  0.000  0.000  0.000    5.29   0.00   0.00      0      0  196.3   0.03   0.04    1.5   0.32    0.03    0.03    0.02    0.00    0.00    0.00        0       0
 1997 160    13    11    1.4      0  0.028     13      3      0     11     16     16      0     0.0  0.000      0      0  0.000  0.086  0.117  0.000  0.000  0.000  0.000    5.13   0.00   0.00      0      0  211.8   0.04   0.05    1.8   0.35    0.03    0.03    0.02    0.00    0.00    0.00        0       0
 1997 161    14    12    2.0      0  0.036     16      3      0     12     18     18      0     0.0  0.000      0      0  0.000  0.000  0.000  0.000  0.000  0.000  0.000    5.04   0.00   0.00      0      0  232.6   0.05   0.06    2.2   0.37    0.04    0.04    0.02    0.00    0.00    0.00        0       1
 1997 162    15    13    2.6      0  0.045     18      3      0     12     21     21      0     0.0  0.000      0      0  0.000  0.000  0.000  0.000  0.000  0.000  0.000    5.04   0.00   0.00      0      0  254.3   0.06   0.08    2.2   0.40    0.04    0.04    0.02    0.00    0.00    0.00        0       1
 1997 163    16    14    2.8      0  0.048     19      4      0     14     23     23      0     0.0  0.000      0      0  0.051  0.367  0.144  0.000  0.000  0.000  0.000    4.93   0.00   0.00      0      0  247.9   0.06   0.09    2.6   0.43    0.04    0.04    0.03    0.00    0.00    0.00        0       1
 1997 164    17    15    3.3      0  0.056     21      4      0     16     26     26      0     0.0  0.000      0      0  0.000  0.000  0.000  0.000  0.000  0.000  0.000    4.92   0.00   0.00      0      0  262.9   0.07   0.09    2.8   0.46    0.05    0.05    0.03    0.00    0.00    0.00        0       1
 1997 165    18    16    3.7      0  0.065     24      5      0     17     30     30      0     0.0  0.000      0      0  0.000  0.000  0.030  0.000  0.000  0.000  0.000    4.78   0.00   0.00      0      0  269.4   0.07   0.11    3.4   0.48    0.05    0.05    0.03    0.01    0.00    0.00        0       1
 1997 166    19    17    4.1      0  0.074     27      7      0     19     34     34      0     0.0  0.000      0      0  0.000  0.000  0.000  0.000  0.000  0.000  0.000    4.71   0.00   0.00      0      0  277.5   0.08   0.12    4.1   0.51    0.05    0.05    0.04    0.01    0.00    0.00        0       1
 1997 167    20    18    4.5      0  0.082     29      9      0     21     38     38      0     0.0  0.000      0      0  0.000  0.000  0.000  0.000  0.000  0.000  0.000    4.67   0.00   0.00      0      0  283.1   0.09   0.13    4.9   0.54    0.06    0.06    0.04    0.01    0.00    0.00        0       1
 1997 168    21    19    4.9      0  0.089     31     12      0     24     44     44      0     0.0  0.000      0      0  0.000  0.000  0.000  0.000  0.000  0.000  0.000    4.65   0.00   0.00      0      0  284.3   0.10   0.14    5.7   0.56    0.07    0.07    0.04    0.01    0.00    0.00        1       2
 1997 169    22    20    5.2      0  0.103     36     15      0     26     51     51      0     0.0  0.000      0      0  0.000  0.000  0.000  0.000  0.000  0.000  0.000    4.57   0.00   0.00      0      0  287.2   0.10   0.15    6.8   0.59    0.07    0.07    0.05    0.01    0.00    0.00        1       2
 1997 170    23    21    5.5      0  0.117     40     18      0     28     58     58      0     0.0  0.000      0      0  0.000  0.000  0.000  0.000  0.000  0.000  0.000    4.58   0.00   0.00      0      0  291.3   0.11   0.16    7.6   0.62    0.07    0.07    0.05    0.01    0.01    0.00        1       2
 1997 171    24    22    5.8      0  0.133     46     21      0     31     67     67      0     0.0  0.000      0      0  0.000  0.000  0.000  0.000  0.000  0.000  0.000    4.54   0.00   0.00      0      0  291.8   0.11   0.17    9.1   0.64    0.08    0.08    0.05    0.02    0.01    0.00        1       2
 1997 172    25    23    6.1      0  0.153     52     26      0     33     77     77      0     0.0  0.000      0      0  0.000  0.000  0.000  0.000  0.000  0.000  0.000    4.53   0.00   0.00      0      0  295.9   0.12   0.18   10.6   0.67    0.09    0.08    0.06    0.02    0.01    0.00        1       3
 1997 173    26    24    6.5      0  0.173     56     29      0     35     85     85      0     0.0  0.000      0      0  0.000  0.000  0.000  0.000  0.000  0.000  0.000    4.57   0.00   0.00      0      0  307.6   0.12   0.19   10.7   0.70    0.09    0.09    0.06    0.02    0.01    0.00        1       3
 1997 174    27    25    6.7      0  0.190     62     33      0     37     95     95      0     0.0  0.000      0      0  0.000  0.000  0.000  0.000  0.000  0.000  0.000    4.62   0.00   0.00      0      0  308.5   0.13   0.20   10.9   0.72    0.09    0.09    0.06    0.02    0.01    0.00        1       3
 1997 175    28    26    7.1      1  0.213     68     39      0     39    107    107      0     0.0  0.000      0      0  0.000  0.000  0.000  0.000  0.000  0.000  0.000    4.63   0.00   0.00      0      0  311.6   0.13   0.21   11.8   0.75    0.10    0.10    0.07    0.02    0.01    0.00        1       3
 1997 176    29    27    7.4      1  0.243     77     46      0     41    123    123      0     0.0  0.000      0      0  0.000  0.000  0.000  0.000  0.000  0.000  0.000    4.58   0.00   0.00      0      0  315.8   0.14   0.23   14.1   0.78    0.10    0.10    0.07    0.03    0.01    0.00        2       4
 1997 177    30    28    7.7      1  0.268     86     54      0     46    140    140      0     0.0  0.000      0      0  0.000  0.121  0.000  0.000  0.000  0.000  0.000    4.53   0.00   0.00      0      0  311.0   0.14   0.24   17.0   0.81    0.11    0.11    0.08    0.03    0.02    0.00        2       4
 1997 178    31    29    8.0      1  0.304     97     64      0     50    161    161      0     0.0  0.000      0      0  0.000  0.002  0.000  0.000  0.000  0.000  0.000    4.52   0.00   0.00      0      0  311.9   0.15   0.25   19.6   0.83    0.12    0.12    0.08    0.03    0.02    0.00        2       5
 1997 179    32    30    8.3      1  0.340    108     73      0     53    181    181      0     0.0  0.000      0      0  0.000  0.000  0.000  0.000  0.000  0.000  0.000    4.58   0.00   0.00      0      0  315.5   0.15   0.26   19.9   0.86    0.13    0.13    0.09    0.03    0.02    0.00        2       5
 1997 180    33    31    8.6      1  0.371    120     84      0     60    204    204      0     0.0  0.000      0      0  0.000  0.123  0.000  0.000  0.000  0.000  0.000    4.55   0.00   0.00      0      0  309.2   0.16   0.27   23.8   0.89    0.14    0.14    0.10    0.04    0.02    0.00        3       6
 1997 181    34    32    8.9      1  0.414    133     97      0     64    230    230      0     0.0  0.000      0      0  0.000  0.000  0.000  0.000  0.000  0.000  0.000    4.61   0.00   0.00      0      0  310.2   0.16   0.29   24.4   0.90    0.15    0.15    0.10    0.04    0.03    0.00        3       6
 1997 182    35    33    9.3      1  0.462    149    111      0     69    260    260      0     0.0  0.000      0      0  0.000  0.000  0.000  0.000  0.000  0.000  0.000    4.59   0.00   0.00      0      0  310.8   0.17   0.30   27.8   0.90    0.16    0.16    0.11    0.05    0.03    0.00        3       7
 1997 183    36    34    9.6      2  0.506    161    123      0     72    283    283      0     0.0  0.000      0      0  0.000  0.000  0.000  0.000  0.000  0.000  0.000    4.62   0.00   0.00      0      0  315.5   0.18   0.32   27.8   0.90    0.17    0.17    0.12    0.05    0.03    0.00        4       7
 1997 184    37    35    9.9      2  0.548    174    136      0     76    310    310      0     0.0  0.000      0      0  0.000  0.000  0.000  0.000  0.000  0.000  0.000    4.64   0.00   0.00      0      0  315.3   0.19   0.33   27.8   0.90    0.18    0.18    0.12    0.05    0.03    0.00        4       8
 1997 185    38    36   10.2      2  0.595    188    151      0     80    339    339      0     0.0  0.000      0      0  0.000  0.000  0.000  0.000  0.000  0.000  0.000    4.66   0.00   0.00      0      0  316.4   0.19   0.35   27.8   0.90    0.18    0.18    0.13    0.05    0.03    0.00        4       9
 1997 186    39    37   10.5      2  0.655    208    171      0     86    380    380      0     0.0  0.000      0      0  0.000  0.000  0.000  0.000  0.000  0.000  0.000    4.59   0.00   0.00      0      0  314.7   0.20   0.36   33.3   0.90    0.20    0.20    0.14    0.06    0.04    0.01        5       9
 1997 187    40    38   10.9      3  0.715    229    193      0     93    422    423      0     0.0  0.000      1      0  0.000  0.000  0.000  0.000  0.000  0.000  0.000    4.57   0.00   0.00      0      1  312.6   0.21   0.38   37.3   0.90    0.21    0.21    0.15    0.06    0.04    0.01        6      10
 1997 188    41    39   11.2      3  0.778    251    218      0     99    469    471      0     0.0  0.000      2      2  0.000  0.000  0.000  0.000  0.000  0.000  0.000    4.58   0.00   0.00      0      2  309.6   0.22   0.39   39.9   0.90    0.23    0.22    0.16    0.07    0.05    0.01        6      11
 1997 189    42    40   11.5      3  0.834    275    244      0    111    520    523      0     0.0  0.000      3      5  0.000  0.081  0.000  0.000  0.000  0.000  0.000    4.57   0.00   0.01      0      3  302.9   0.22   0.41   45.6   0.90    0.25    0.25    0.17    0.08    0.05    0.01        7      12
 1997 190    43    41   11.8      3  0.905    302    275      0    119    576    582      0     0.0  0.000      6      9  0.000  0.000  0.000  0.000  0.000  0.000  0.000    4.59   0.00   0.01      0      6  299.8   0.23   0.42   47.8   0.90    0.27    0.27    0.18    0.08    0.06    0.01        8      13
 1997 191    44    42   12.1      3  0.971    324    300      0    125    623    632      0     0.0  0.000      9     14  0.000  0.000  0.000  0.000  0.000  0.000  0.000    4.60   0.00   0.01      0      9  299.9   0.24   0.44   47.8   0.90    0.28    0.28    0.19    0.09    0.06    0.01        8      14
 1997 192    45    43   12.5      3  1.038    346    326      0    131    673    686      0     0.0  0.000     13     19  0.000  0.000  0.000  0.000  0.000  0.000  0.000    4.61   0.00   0.02      0     13  299.7   0.24   0.45   47.8   0.90    0.29    0.29    0.20    0.09    0.06    0.01        9      15
 1997 193    46    44   12.8      3  1.110    376    362      0    140    738    757      0     0.0  0.000     19     25  0.000  0.000  0.000  0.000  0.000  0.000  0.000    4.59   0.00   0.03      0     19  295.3   0.25   0.47   52.9   0.90    0.31    0.31    0.22    0.10    0.07    0.01       10      16
 1997 194    47    45   13.1      5  1.188    407    402      0    150    809    835      0     0.0  0.000     26     32  0.000  0.000  0.000  0.000  0.000  0.000  0.000    4.58   0.00   0.03      0     26  291.8   0.26   0.49   58.3   0.90    0.33    0.33    0.23    0.11    0.07    0.01       13      18
 1997 195    48    46   13.5      5  1.270    438    442      0    159    880    913      3     0.0  0.000     34     39  0.000  0.000  0.000  0.000  0.000  0.000  0.000    4.59   0.00   0.04      0     34  290.0   0.27   0.50   60.1   0.90    0.35    0.35    0.24    0.11    0.08    0.01       15      19
 1997 196    49    47   13.8      5  1.330    459    471      0    165    930    973      8     4.1  0.000     44     46  0.000  0.000  0.000  0.000  0.000  0.000  0.000    4.58   0.76   0.04      0     44  289.9   0.27   0.50   60.1   0.90    0.37    0.37    0.25    0.12    0.08    0.01       18      21
 1997 197    50    48   14.1      5  1.372    474    492      1    169    967   1023     14     9.3  0.001     56     52  0.000  0.000  0.000  0.000  0.000  0.000  0.000    4.56   2.39   0.05      0     56  289.1   0.28   0.50   60.1   0.90    0.38    0.37    0.26    0.12    0.08    0.01       19      22
 1997 198    51    49   14.4      5  1.444    504    532      3    178   1036   1106     23    13.3  0.003     70     59  0.000  0.000  0.000  0.000  0.000  0.000  0.000    4.56   4.38   0.06      0     70  286.7   0.29   0.50   60.7   0.90    0.39    0.39    0.27    0.13    0.09    0.02       21      24
 1997 199    52    50   14.7      5  1.513    533    573      6    186   1107   1193     31    18.6  0.005     87     68  0.000  0.000  0.000  0.000  0.000  0.000  0.000    4.54   6.73   0.07      0     87  283.7   0.30   0.50   62.5   0.90    0.41    0.41    0.29    0.14    0.09    0.02       22      25
 1997 200    53    51   15.0      5  1.585    564    617     10    195   1181   1287     41    23.4  0.007    106     78  0.000  0.000  0.000  0.000  0.000  0.000  0.000    4.52   9.03   0.08      0    106  280.8   0.30   0.50   66.5   0.90    0.43    0.43    0.30    0.14    0.10    0.02       24      27
 1997 201    54    52   15.3      5  1.639    587    651     14    201   1238   1366     53    27.5  0.011    127     87  0.000  0.000  0.000  0.000  0.000  0.000  0.000    4.50  11.36   0.09      0    127  279.0   0.31   0.50   66.5   0.90    0.44    0.44    0.31    0.15    0.10    0.02       26      29
 1997 202    55    53   15.6      5  1.671    599    670     21    204   1269   1420     63    33.0  0.015    151     94  0.000  0.000  0.000  0.000  0.000  0.000  0.000    4.46  13.75   0.11      0    151  279.1   0.32   0.50   66.5   0.90    0.45    0.45    0.31    0.15    0.10    0.02       28      30
 1997 203    56    54   15.9      5  1.737    632    719     28    213   1351   1528     74    38.1  0.018    177    106  0.000  0.000  0.000  0.000  0.000  0.000  0.000    4.43  15.96   0.12      0    177  275.1   0.32   0.50   73.1   0.90    0.47    0.47    0.33    0.16    0.11    0.02       30      32
 1997 204    57    55   16.2      5  1.802    660    763     37    221   1424   1628     85    43.2  0.023    204    118  0.000  0.000  0.000  0.000  0.000  0.000  0.000    4.42  17.97   0.13      0    204  272.9   0.33   0.50   73.1   0.90    0.49    0.49    0.34    0.16    0.11    0.02       31      34
 1997 205    58    56   16.5      5  1.861    687    806     47    228   1492   1727     97    48.0  0.027    235    131  0.000  0.000  0.000  0.000  0.000  0.000  0.000    4.40  19.84   0.14      0    235  271.0   0.34   0.50   73.1   0.90    0.50    0.50    0.35    0.17    0.12    0.02       34      36
 1997 206    59    57   16.8      5  1.920    717    855     58    236   1573   1841    111    52.5  0.032    268    143  0.000  0.000  0.000  0.000  0.000  0.000  0.000    4.39  21.67   0.15      0    268  267.7   0.34   0.50   73.1   0.90    0.52    0.52    0.36    0.17    0.12    0.02       36      38
 1997 207    60    58   17.1      5  1.983    748    906     71    244   1654   1956    128    55.3  0.036    302    151  0.000  0.000  0.000  0.000  0.000  0.000  0.000    4.38  23.42   0.15      0    302  265.1   0.35   0.50   73.3   0.90    0.54    0.54    0.38    0.18    0.13    0.02       38      40
 1997 208    61    59   17.4      5  2.042    776    953     85    251   1729   2068    142    59.9  0.041    339    166  0.000  0.000  0.000  0.000  0.000  0.000  0.000    4.37  25.12   0.16      0    339  263.1   0.35   0.50   73.3   0.90    0.56    0.55    0.39    0.19    0.13    0.02       41      43
 1997 209    62    60   17.7      5  2.097    805   1003    101    259   1808   2186    154    65.8  0.046    379    180  0.000  0.000  0.000  0.000  0.000  0.000  0.000    4.35  26.73   0.17      0    379  260.7   0.36   0.50   74.2   0.90    0.57    0.57    0.40    0.19    0.13    0.02       43      45
 1997 210    63    61   18.0      5  2.134    820   1033    119    262   1854   2276    173    69.0  0.052    422    193  0.000  0.000  0.000  0.000  0.000  0.000  0.000    4.32  28.22   0.19      0    422  260.1   0.37   0.50   74.2   0.90    0.58    0.58    0.40    0.20    0.14    0.03       46      48
 1997 211    64    62   18.3      5  2.151    828   1051    140    264   1879   2349    193    72.4  0.060    470    208  0.000  0.000  0.000  0.000  0.000  0.000  0.000    4.28  29.74   0.20      0    470  259.9   0.37   0.50   74.2   0.90    0.58    0.58    0.41    0.20    0.14    0.03       49      50
 1997 212    65    63   18.6      5  2.155    829   1059    163    263   1888   2408    214    76.3  0.068    520    224  0.000  0.000  0.000  0.000  0.000  0.000  0.000    4.23  31.47   0.22      0    520  259.9   0.38   0.50   74.2   0.90    0.58    0.58    0.41    0.20    0.14    0.03       52      52
 1997 213    66    64   18.9      5  2.166    835   1074    190    264   1908   2484    233    81.4  0.076    575    239  0.000  0.000  0.000  0.000  0.000  0.000  0.000    4.20  32.95   0.23      0    575  259.6   0.38   0.50   74.2   0.90    0.59    0.59    0.41    0.20    0.14    0.03       55      55
 1997 214    67    65   19.1      5  2.201    855   1114    217    268   1968   2601    247    87.9  0.083    632    256  0.000  0.000  0.000  0.000  0.000  0.000  0.000    4.19  34.28   0.24      0    632  257.5   0.39   0.50   74.2   0.90    0.60    0.60    0.42    0.20    0.14    0.03       58      57
 1997 215    68    66   19.4      5  2.232    872   1151    244    272   2023   2711    271    90.2  0.090    688    269  0.000  0.000  0.000  0.000  0.000  0.000  0.000    4.18  35.49   0.25      0    688  255.8   0.39   0.50   74.2   0.90    0.61    0.60    0.42    0.20    0.14    0.03       61      60
 1997 216    69    67   19.7      5  2.239    876   1163    276    272   2039   2789    293    94.3  0.099    750    281  0.000  0.000  0.000  0.000  0.000  0.000  0.000    4.14  36.82   0.27      0    750  255.7   0.40   0.50   74.2   0.90    0.61    0.61    0.42    0.20    0.14    0.03       64      62
 1997 217    70    68   19.9      5  2.249    881   1180    311    273   2062   2877    315    98.7  0.108    815    291  0.000  0.000  0.000  0.000  0.000  0.000  0.000    4.11  38.17   0.28      0    815  255.1   0.40   0.50   74.2   0.90    0.61    0.61    0.42    0.21    0.14    0.03       68      65
 1997 218    71    69   20.1      5  2.248    882   1188    349    272   2070   2926    339   103.0  0.119    857    303  0.000  0.000  0.000  0.000  0.000  0.000  0.000    4.07  40.80   0.29      0    857  255.0   0.41   0.50   74.2   0.90    0.61    0.61    0.42    0.21    0.14    0.03       71      67
 1997 219    72    70   20.4      5  2.252    885   1201    390    272   2085   3005    365   106.8  0.130    920    319  0.000  0.000  0.000  0.000  0.000  0.000  0.000    4.03  42.38   0.31      0    920  254.6   0.41   0.50   74.2   0.90    0.61    0.61    0.42    0.21    0.14    0.03       74      70
 1997 220    73    71   20.6      5  2.264    895   1228    433    274   2123   3117    390   110.9  0.139    994    333  0.000  0.000  0.000  0.000  0.000  0.000  0.000    4.02  43.58   0.32      0    994  253.0   0.42   0.50   74.2   0.90    0.61    0.61    0.43    0.21    0.14    0.03       78      72
 1997 221    74    72   20.8      5  2.268    898   1242    478    273   2140   3200    418   114.5  0.149   1060    346  0.000  0.000  0.000  0.000  0.000  0.000  0.000    3.98  45.10   0.33      0   1060  252.5   0.42   0.50   74.2   0.90    0.61    0.61    0.43    0.21    0.15    0.03       81      75
 1997 222    75    73   21.0      5  2.274    904   1262    528    274   2167   3307    440   119.9  0.160   1140    359  0.000  0.000  0.000  0.000  0.000  0.000  0.000    3.95  46.28   0.34      0   1140  251.4   0.42   0.50   74.2   0.90    0.62    0.62    0.43    0.21    0.15    0.03       84      77
 1997 223    76    74   21.2      5  2.279    910   1282    579    275   2193   3413    460   126.0  0.170   1221    368  0.000  0.000  0.000  0.000  0.000  0.000  0.000    3.92  47.45   0.36      0   1221  250.3   0.43   0.50   74.2   0.90    0.62    0.62    0.43    0.21    0.15    0.03       87      80
 1997 224    77    75   21.4      5  2.281    914   1299    634    275   2213   3505    477   132.9  0.181   1292    380  0.000  0.000  0.000  0.000  0.000  0.000  0.000    3.89  49.04   0.37      0   1292  249.6   0.43   0.50   74.2   0.90    0.62    0.62    0.43    0.21    0.15    0.03       90      82
 1997 225    78    76   21.6      5  2.283    918   1316    689    275   2233   3598    497   138.8  0.192   1365    395  0.000  0.000  0.000  0.000  0.000  0.000  0.000    3.86  50.52   0.38      0   1365  248.8   0.43   0.50   74.2   0.90    0.62    0.62    0.43    0.21    0.15    0.03       93      85
 1997 226    79    77   21.8      5  2.285    921   1331    747    274   2252   3686    523   142.8  0.203   1434    408  0.000  0.000  0.000  0.000  0.000  0.000  0.000    3.83  52.06   0.39      0   1434  248.1   0.44   0.50   74.2   0.90    0.61    0.62    0.43    0.21    0.15    0.03       97      88
 1997 227    80    78   22.0      5  2.268    919   1345    794    271   2264   3743    547   145.2  0.212   1478    422  0.000  0.000  0.000  0.000  0.000  0.000  0.000    3.75  53.71   0.40      0   1478  246.7   0.44   0.50   74.2   0.90    0.61    0.61    0.43    0.21    0.15    0.03      100      90
 1997 228    81    79   22.2      5  2.267    922   1361    854    271   2284   3834    568   150.5  0.223   1550    436  0.000  0.000  0.000  0.000  0.000  0.000  0.000    3.70  55.10   0.40      0   1550  245.9   0.44   0.50   74.2   0.90    0.61    0.61    0.43    0.21    0.15    0.03      103      93
 1997 229    82    80   22.3      5  2.251    921   1375    917    268   2296   3907    589   155.7  0.235   1611    449  0.000  0.000  0.000  0.000  0.000  0.000  0.000    3.63  56.96   0.41      0   1611  244.5   0.45   0.50   74.2   0.90    0.60    0.61    0.43    0.21    0.14    0.03      106      95
 1997 230    83    81   22.4      5  2.248    922   1389    981    267   2312   3989    604   162.2  0.246   1678    462  0.000  0.000  0.000  0.000  0.000  0.000  0.000    3.58  58.45   0.42      0   1678  243.8   0.45   0.50   74.2   0.90    0.60    0.61    0.42    0.21    0.14    0.03      109      98
 1997 231    84    82   22.6      5  2.244    924   1405   1050    267   2329   4080    621   169.0  0.257   1750    472  0.000  0.000  0.000  0.000  0.000  0.000  0.000    3.53  59.99   0.43      0   1750  242.8   0.45   0.50   74.2   0.90    0.60    0.61    0.42    0.21    0.14    0.03      112     100
 1997 232    85    83   22.7      5  2.230    924   1423   1121    264   2347   4171    635   176.4  0.269   1824    465  0.000  0.000  0.000  0.000  0.000  0.000  0.000    3.46  61.46   0.44      0   1824  241.3   0.45   0.50   74.2   0.90    0.60    0.60    0.42    0.20    0.14    0.03      115     102
 1997 233    86    84   22.8      5  2.228    927   1438   1185    263   2365   4262    652   181.6  0.278   1897    474  0.000  0.000  0.000  0.000  0.000  0.000  0.000    3.42  62.47   0.45      0   1897  240.5   0.46   0.50   74.2   0.90    0.60    0.60    0.42    0.20    0.14    0.03      118     105
 1997 234    87    85   22.9      5  2.218    926   1451   1248    261   2377   4333    666   187.3  0.288   1956    467  0.000  0.000  0.000  0.000  0.000  0.000  0.000    3.36  63.79   0.45      0   1956  239.5   0.46   0.50   74.2   0.90    0.59    0.60    0.42    0.20    0.14    0.03      121     107
 1997 235    88    86   23.0      5  2.205    923   1455   1283    258   2378   4366    668   192.1  0.294   1988    463  0.000  0.000  0.000  0.000  0.000  0.000  0.000    3.31  64.52   0.46      0   1988  239.0   0.46   0.50   74.2   0.90    0.59    0.59    0.41    0.20    0.14    0.03      124     110
 1997 236    89    87   23.1      5  2.193    922   1468   1347    256   2390   4440    668   201.7  0.303   2050    460  0.000  0.000  0.000  0.000  0.000  0.000  0.000    3.25  65.70   0.46      0   2050  237.9   0.46   0.50   74.2   0.90    0.58    0.59    0.41    0.20    0.14    0.03      127     112
 1997 237    90    88   23.1      5  2.190    923   1481   1412    255   2404   4520    668   211.5  0.312   2116    457  0.000  0.000  0.000  0.000  0.000  0.000  0.000    3.21  66.73   0.47      0   2116  237.3   0.46   0.50   74.2   0.90    0.58    0.59    0.41    0.20    0.14    0.03      129     115
 1997 238    91    89   23.2      5  2.179    922   1493   1473    252   2415   4590    668   220.6  0.321   2175    454  0.000  0.000  0.000  0.000  0.000  0.000  0.000    3.16  67.73   0.47      0   2175  236.3   0.46   0.50   74.2   0.90    0.57    0.58    0.41    0.20    0.14    0.03      131     117
 1997 239    92    90   23.3      5  2.169    922   1505   1534    250   2426   4664    668   229.8  0.329   2237    454  0.000  0.000  0.000  0.000  0.000  0.000  0.000    3.11  68.58   0.48      0   2237  235.4   0.47   0.50   74.2   0.90    0.57    0.58    0.40    0.20    0.14    0.03      133     119
 1997 240    93    91   23.3      5  2.160    920   1511   1577    247   2431   4708    673   234.4  0.335   2277    446  0.000  0.000  0.000  0.000  0.000  0.000  0.000    3.06  69.26   0.48      0   2277  234.8   0.47   0.50   74.2   0.90    0.56    0.57    0.40    0.19    0.14    0.03      136     122
 1997 241    94    92   23.4      5  2.158    921   1522   1634    247   2443   4784    673   243.0  0.342   2340    446  0.000  0.000  0.000  0.000  0.000  0.000  0.000    3.04  69.85   0.49      0   2340  234.3   0.47   0.50   74.2   0.90    0.56    0.57    0.40    0.19    0.14    0.03      138     124
 1997 242    95    93   23.4      5  2.156    922   1534   1689    246   2455   4855    683   247.2  0.348   2400    449  0.000  0.000  0.000  0.000  0.000  0.000  0.000    3.02  70.36   0.49      0   2400  233.8   0.47   0.50   74.2   0.90    0.56    0.57    0.40    0.19    0.14    0.03      141     126
 1997 243    96    94   23.5      5  2.155    923   1545   1742    245   2469   4928    697   249.8  0.353   2459    448  0.000  0.000  0.000  0.000  0.000  0.000  0.000    3.00  70.83   0.50      0   2459  233.3   0.47   0.50   74.2   0.90    0.56    0.57    0.40    0.19    0.13    0.03      143     129
 1997 244    97    95   23.6      5  2.153    924   1555   1792    244   2479   4994    713   251.5  0.359   2515    452  0.000  0.000  0.000  0.000  0.000  0.000  0.000    2.98  71.24   0.50      0   2515  233.0   0.47   0.50   74.2   0.90    0.56    0.56    0.39    0.19    0.13    0.03      145     131
 1997 245    98    96   23.7      5  2.151    924   1564   1844    243   2488   5059    726   253.9  0.365   2570    452  0.000  0.000  0.000  0.000  0.000  0.000  0.000    2.96  71.74   0.51      0   2570  232.7   0.47   0.50   74.2   0.90    0.56    0.56    0.39    0.19    0.13    0.03      147     133
 1997 246    99    97   23.8      5  2.143    924   1572   1887    241   2496   5108    726   259.8  0.369   2612    457  0.000  0.000  0.000  0.000  0.000  0.000  0.000    2.92  72.25   0.51      0   2612  232.0   0.47   0.50   74.2   0.90    0.55    0.56    0.39    0.19    0.13    0.03      148     135
 1997 247   100    98   23.8      5  2.136    923   1580   1930    238   2503   5156    726   265.7  0.374   2653    462  0.000  0.000  0.000  0.000  0.000  0.000  0.000    2.89  72.73   0.51      0   2653  231.4   0.47   0.50   74.2   0.90    0.55    0.55    0.39    0.19    0.13    0.03      150     138
 1997 248   101    99   23.9      5  2.135    925   1593   1974    238   2518   5221    726   271.8  0.378   2703    462  0.000  0.000  0.000  0.000  0.000  0.000  0.000    2.88  73.03   0.52      0   2703  230.9   0.48   0.50   74.2   0.90    0.55    0.55    0.38    0.19    0.13    0.03      151     140
 1997 249   102   100   24.0      8  2.129    930   1625   2011    235   2556   5294    737   272.9  0.380   2738    461  0.000  0.000  0.493  0.000  0.000  0.000  0.000    2.83  73.43   0.52      0   2738  228.8   0.48   0.50   74.2   0.90    0.54    0.55    0.38    0.19    0.13    0.02      152     142

*DSSAT Cropping System Model Ver. 4.5.1.023 -Stub         DEC 04, 2014; 01:35:35
                                                                                
*RUN   2        : 97 DATE1 F-MIX            CRGRO045 GHNY9701    2              
 MODEL          : CRGRO045 - Peanut                                             
 EXPERIMENT     : GHNY9701 PN 1997 VARIETY X PLANTING DATE EXPERIMENT           
 DATA PATH      :                                                               
 TREATMENT  2   : 97 DATE1 F-MIX            CRGRO045                            
  
!                                                                                                                                                                                                                                                    Root Dens. (cm/cm3) by soil depth (cm):
!                                                                                                                                                                                                                                                    0-5    5-15   15-30   30-45   45-60   60-90
@YEAR DOY   DAS   DAP   L#SD   GSTD   LAID   LWAD   SWAD   GWAD   RWAD   VWAD   CWAD   G#AD    GWGD   HIAD   PWAD   P#AD   WSPD   WSGD   NSTD  PST1A  PST2A   KSTD   EWSD    LN%D   SH%D   HIPD   PWDD   PWTD   SLAD   CHTD   CWID   NWAD   RDPD    RL1D    RL2D    RL3D    RL4D    RL5D    RL6D    SNW0C   SNW1C
 1997 149     2     0    0.0      0  0.000      0      0      0      0      0      0      0     0.0  0.000      0      0  0.000  0.000  0.000  0.000  0.000  0.000  0.000    0.00   0.00   0.00      0      0    0.0   0.00   0.00    0.0   0.00    0.00    0.00    0.00    0.00    0.00    0.00        0       0
 1997 150     3     1    0.0      0  0.000      0      0      0      0      0      0      0     0.0  0.000      0      0  0.000  0.000  0.000  0.000  0.000  0.000  0.000    0.00   0.00   0.00      0      0    0.0   0.00   0.00    0.0   0.00    0.00    0.00    0.00    0.00    0.00    0.00        0       0
 1997 151     4     2    0.0      0  0.000      0      0      0      0      0      0      0     0.0  0.000      0      0  0.000  0.000  0.000  0.000  0.000  0.000  0.000    0.00   0.00   0.00      0      0    0.0   0.00   0.00    0.0   0.00    0.00    0.00    0.00    0.00    0.00    0.00        0       0
 1997 152     5     3    0.0      0  0.000      0      0      0      0      0      0      0     0.0  0.000      0      0  0.000  0.000  0.000  0.000  0.000  0.000  0.000    0.00   0.00   0.00      0      0    0.0   0.00   0.00    0.0   0.00    0.00    0.00    0.00    0.00    0.00    0.00        0       0
 1997 153     6     4    0.0      0  0.000      0      0      0      0      0      0      0     0.0  0.000      0      0  0.000  0.000  0.000  0.000  0.000  0.000  0.000    0.00   0.00   0.00      0      0    0.0   0.00   0.00    0.0   0.00    0.00    0.00    0.00    0.00    0.00    0.00        0       0
 1997 154     7     5    0.0      0  0.000      0      0      0      0      0      0      0     0.0  0.000      0      0  0.000  0.000  0.000  0.000  0.000  0.000  0.000    0.00   0.00   0.00      0      0    0.0   0.00   0.00    0.0   0.00    0.00    0.00    0.00    0.00    0.00    0.00        0       0
 1997 155     8     6    0.0      0  0.000      0      0      0      0      0      0      0     0.0  0.000      0      0  0.000  0.000  0.000  0.000  0.000  0.000  0.000    0.00   0.00   0.00      0      0    0.0   0.00   0.00    0.0   0.00    0.00    0.00    0.00    0.00    0.00    0.00        0       0
 1997 156     9     7    0.0      0  0.000      0      0      0      0      0      0      0     0.0  0.000      0      0  0.000  0.000  0.000  0.000  0.000  0.000  0.000    0.00   0.00   0.00      0      0    0.0   0.00   0.00    0.0   0.00    0.00    0.00    0.00    0.00    0.00    0.00        0       0
 1997 157    10     8    0.2      0  0.016     11      2      0     11     13     13      0     0.0  0.000      0      0  0.000  0.000  0.000  0.000  0.000  0.000  0.000    5.36   0.00   0.00      0      0  142.9   0.02   0.03    1.4   0.27    0.04    0.04    0.02    0.00    0.00    0.00        0       0
 1997 158    11     9    0.4      0  0.018     12      3      0     13     14     14      0     0.0  0.000      0      0  0.000  0.000  0.685  0.000  0.000  0.000  0.000    5.29   0.00   0.00      0      0  156.0   0.02   0.03    1.5   0.29    0.04    0.04    0.02    0.00    0.00    0.00        0       0
 1997 159    12    10    0.7      0  0.021     13      3      0     14     15     15      0     0.0  0.000      0      0  0.000  0.000  0.400  0.000  0.000  0.000  0.000    5.29   0.00   0.00      0      0  170.7   0.03   0.04    1.5   0.32    0.04    0.04    0.03    0.00    0.00    0.00        0       0
 1997 160    13    11    1.3      0  0.028     15      3      0     15     18     18      0     0.0  0.000      0      0  0.000  0.000  0.145  0.000  0.000  0.000  0.000    5.20   0.00   0.00      0      0  192.2   0.03   0.05    1.8   0.35    0.05    0.05    0.03    0.00    0.00    0.00        0       1
 1997 161    14    12    1.9      0  0.036     17      3      0     16     20     20      0     0.0  0.000      0      0  0.000  0.000  0.000  0.000  0.000  0.000  0.000    5.14   0.00   0.00      0      0  214.1   0.04   0.06    2.1   0.37    0.05    0.05    0.03    0.00    0.00    0.00        0       1
 1997 162    15    13    2.4      0  0.044     19      3      0     16     22     22      0     0.0  0.000      0      0  0.000  0.000  0.000  0.000  0.000  0.000  0.000    5.12   0.00   0.00      0      0  236.2   0.04   0.07    2.1   0.40    0.05    0.05    0.03    0.00    0.00    0.00        0       1
 1997 163    16    14    2.8      0  0.050     21      4      0     18     25     25      0     0.0  0.000      0      0  0.000  0.134  0.144  0.000  0.000  0.000  0.000    4.98   0.00   0.00      0      0  237.4   0.05   0.08    2.6   0.43    0.06    0.05    0.04    0.00    0.00    0.00        0       1
 1997 164    17    15    3.3      0  0.057     23      5      0     20     28     28      0     0.0  0.000      0      0  0.000  0.000  0.000  0.000  0.000  0.000  0.000    4.97   0.00   0.00      0      0  250.4   0.05   0.09    2.7   0.46    0.06    0.06    0.04    0.00    0.00    0.00        0       1
 1997 165    18    16    3.7      0  0.065     25      7      0     22     32     32      0     0.0  0.000      0      0  0.000  0.000  0.040  0.000  0.000  0.000  0.000    4.87   0.00   0.00      0      0  258.2   0.06   0.10    3.2   0.48    0.06    0.06    0.04    0.01    0.00    0.00        0       1
 1997 166    19    17    4.1      0  0.073     27      8      0     24     36     36      0     0.0  0.000      0      0  0.000  0.000  0.000  0.000  0.000  0.000  0.000    4.79   0.00   0.00      0      0  265.9   0.07   0.12    3.9   0.51    0.07    0.07    0.04    0.01    0.00    0.00        0       2
 1997 167    20    18    4.5      0  0.080     30     11      0     27     40     40      0     0.0  0.000      0      0  0.000  0.000  0.000  0.000  0.000  0.000  0.000    4.74   0.00   0.00      0      0  271.3   0.07   0.13    4.7   0.54    0.07    0.07    0.05    0.01    0.00    0.00        1       2
 1997 168    21    19    4.8      0  0.086     32     14      0     30     46     46      0     0.0  0.000      0      0  0.000  0.000  0.000  0.000  0.000  0.000  0.000    4.72   0.00   0.00      0      0  272.9   0.07   0.14    5.5   0.56    0.08    0.08    0.05    0.01    0.00    0.00        1       2
 1997 169    22    20    5.1      0  0.100     36     17      0     32     53     53      0     0.0  0.000      0      0  0.000  0.000  0.000  0.000  0.000  0.000  0.000    4.62   0.00   0.00      0      0  276.5   0.08   0.15    6.6   0.59    0.09    0.09    0.06    0.01    0.00    0.00        1       2
 1997 170    23    21    5.4      0  0.114     40     19      0     34     60     60      0     0.0  0.000      0      0  0.000  0.000  0.000  0.000  0.000  0.000  0.000    4.62   0.00   0.00      0      0  281.0   0.08   0.15    7.5   0.62    0.09    0.09    0.06    0.02    0.01    0.00        1       3
 1997 171    24    22    5.7      0  0.130     46     23      0     36     69     69      0     0.0  0.000      0      0  0.000  0.000  0.000  0.000  0.000  0.000  0.000    4.57   0.00   0.00      0      0  282.2   0.09   0.16    9.0   0.64    0.10    0.09    0.06    0.02    0.01    0.00        1       3
 1997 172    25    23    6.0      0  0.149     52     27      0     39     79     79      0     0.0  0.000      0      0  0.000  0.000  0.000  0.000  0.000  0.000  0.000    4.56   0.00   0.00      0      0  286.7   0.09   0.17   10.6   0.67    0.10    0.10    0.07    0.02    0.01    0.00        1       3
 1997 173    26    24    6.4      0  0.168     56     31      0     40     87     87      0     0.0  0.000      0      0  0.000  0.000  0.000  0.000  0.000  0.000  0.000    4.59   0.00   0.00      0      0  298.2   0.09   0.18   10.7   0.70    0.10    0.10    0.07    0.02    0.01    0.00        1       4
 1997 174    27    25    6.6      0  0.185     62     35      0     42     97     97      0     0.0  0.000      0      0  0.000  0.000  0.000  0.000  0.000  0.000  0.000    4.64   0.00   0.00      0      0  299.5   0.10   0.19   10.9   0.72    0.11    0.11    0.07    0.02    0.01    0.00        1       4
 1997 175    28    26    6.9      0  0.208     69     40      0     44    109    109      0     0.0  0.000      0      0  0.000  0.000  0.000  0.000  0.000  0.000  0.000    4.65   0.00   0.00      0      0  302.9   0.10   0.20   11.8   0.75    0.11    0.11    0.08    0.02    0.01    0.00        1       4
 1997 176    29    27    7.2      0  0.237     77     48      0     46    125    125      0     0.0  0.000      0      0  0.000  0.000  0.000  0.000  0.000  0.000  0.000    4.59   0.00   0.00      0      0  307.6   0.10   0.21   14.1   0.78    0.12    0.12    0.08    0.03    0.01    0.00        2       5
 1997 177    30    28    7.6      1  0.270     88     57      0     49    145    145      0     0.0  0.000      0      0  0.000  0.000  0.000  0.000  0.000  0.000  0.000    4.50   0.00   0.00      0      0  307.6   0.11   0.22   16.9   0.81    0.12    0.12    0.08    0.03    0.02    0.00        2       5
 1997 178    31    29    7.9      1  0.307     99     68      0     52    167    167      0     0.0  0.000      0      0  0.000  0.000  0.000  0.000  0.000  0.000  0.000    4.48   0.00   0.00      0      0  308.6   0.11   0.24   20.0   0.83    0.13    0.13    0.09    0.03    0.02    0.00        2       6
 1997 179    32    30    8.2      1  0.343    110     78      0     55    188    188      0     0.0  0.000      0      0  0.000  0.000  0.000  0.000  0.000  0.000  0.000    4.54   0.00   0.00      0      0  312.1   0.12   0.25   20.3   0.86    0.14    0.14    0.09    0.03    0.02    0.00        2       6
 1997 180    33    31    8.5      1  0.379    123     90      0     61    213    213      0     0.0  0.000      0      0  0.000  0.094  0.000  0.000  0.000  0.000  0.000    4.51   0.00   0.00      0      0  308.3   0.12   0.26   24.3   0.89    0.15    0.15    0.10    0.04    0.02    0.00        3       7
 1997 181    34    32    8.8      1  0.426    137    103      0     65    240    240      0     0.0  0.000      0      0  0.000  0.000  0.000  0.000  0.000  0.000  0.000    4.56   0.00   0.00      0      0  311.2   0.12   0.27   25.2   0.90    0.16    0.16    0.11    0.04    0.02    0.00        3       7
 1997 182    35    33    9.1      1  0.480    153    119      0     69    272    272      0     0.0  0.000      0      0  0.000  0.000  0.000  0.000  0.000  0.000  0.000    4.55   0.00   0.00      0      0  313.9   0.13   0.28   28.9   0.90    0.17    0.16    0.11    0.04    0.03    0.00        3       8
 1997 183    36    34    9.5      1  0.526    165    131      0     72    297    297      0     0.0  0.000      0      0  0.000  0.000  0.000  0.000  0.000  0.000  0.000    4.58   0.00   0.00      0      0  318.8   0.13   0.30   29.2   0.90    0.17    0.17    0.12    0.05    0.03    0.00        4       8
 1997 184    37    35    9.7      1  0.570    179    145      0     76    324    324      0     0.0  0.000      0      0  0.000  0.000  0.000  0.000  0.000  0.000  0.000    4.62   0.00   0.00      0      0  318.9   0.14   0.31   29.6   0.90    0.18    0.18    0.12    0.05    0.03    0.00        4       9
 1997 185    38    36   10.0      1  0.619    193    161      0     79    354    354      0     0.0  0.000      0      0  0.000  0.000  0.000  0.000  0.000  0.000  0.000    4.65   0.00   0.00      0      0  320.2   0.14   0.33   30.0   0.90    0.19    0.19    0.13    0.05    0.03    0.00        4      10
 1997 186    39    37   10.4      1  0.683    214    183      0     85    397    397      0     0.0  0.000      0      0  0.000  0.000  0.000  0.000  0.000  0.000  0.000    4.59   0.00   0.00      0      0  318.6   0.15   0.34   35.9   0.90    0.20    0.20    0.14    0.06    0.04    0.00        5      10
 1997 187    40    38   10.7      2  0.749    236    206      0     91    443    443      0     0.0  0.000      0      0  0.000  0.000  0.000  0.000  0.000  0.000  0.000    4.59   0.00   0.00      0      0  316.8   0.15   0.35   39.4   0.90    0.21    0.21    0.15    0.06    0.04    0.01        6      11
 1997 188    41    39   11.0      2  0.818    260    232      0     97    493    493      0     0.0  0.000      0      0  0.000  0.000  0.000  0.000  0.000  0.000  0.000    4.60   0.00   0.00      0      0  313.9   0.16   0.37   42.4   0.90    0.22    0.22    0.15    0.07    0.04    0.01        6      12
 1997 189    42    40   11.3      2  0.873    285    260      0    111    545    545      0     0.0  0.000      0      0  0.000  0.131  0.000  0.000  0.000  0.000  0.000    4.59   0.00   0.00      0      0  306.1   0.16   0.38   48.9   0.90    0.25    0.25    0.17    0.08    0.05    0.01        7      13
 1997 190    43    41   11.6      2  0.953    314    293      0    119    607    608      0     0.0  0.000      0      0  0.000  0.000  0.000  0.000  0.000  0.000  0.000    4.62   0.00   0.00      0      0  303.2   0.17   0.39   51.4   0.90    0.27    0.27    0.19    0.08    0.05    0.01        8      14
 1997 191    44    42   11.9      3  1.029    339    321      0    125    660    660      0     0.0  0.000      1      0  0.000  0.000  0.000  0.000  0.000  0.000  0.000    4.64   0.00   0.00      0      1  303.7   0.17   0.41   51.4   0.90    0.28    0.28    0.20    0.09    0.06    0.01        9      15
 1997 192    45    43   12.2      3  1.108    365    351      0    131    716    717      0     0.0  0.000      1      1  0.000  0.000  0.000  0.000  0.000  0.000  0.000    4.66   0.00   0.00      0      1  303.8   0.18   0.42   51.4   0.90    0.30    0.30    0.21    0.09    0.06    0.01        9      16
 1997 193    46    44   12.5      3  1.194    399    391      0    140    790    793      0     0.0  0.000      2      4  0.000  0.000  0.000  0.000  0.000  0.000  0.000    4.63   0.00   0.00      0      2  299.4   0.18   0.44   58.8   0.90    0.32    0.32    0.22    0.10    0.07    0.01       10      17
 1997 194    47    45   12.8      3  1.288    435    436      0    150    871    875      0     0.0  0.000      4      7  0.000  0.000  0.000  0.000  0.000  0.000  0.000    4.62   0.00   0.00      0      4  296.0   0.19   0.45   65.3   0.90    0.34    0.34    0.23    0.11    0.07    0.01       13      19
 1997 195    48    46   13.2      3  1.387    471    482      0    160    953    959      0     0.0  0.000      7     10  0.000  0.000  0.000  0.000  0.000  0.000  0.000    4.64   0.00   0.01      0      7  294.5   0.19   0.46   67.8   0.90    0.36    0.36    0.25    0.11    0.08    0.01       15      20
 1997 196    49    47   13.5      3  1.464    497    516      0    167   1013   1023      0     0.0  0.000     10     14  0.000  0.000  0.000  0.000  0.000  0.000  0.000    4.65   0.00   0.01      0     10  294.6   0.20   0.48   67.8   0.90    0.37    0.37    0.26    0.12    0.08    0.01       18      22
 1997 197    50    48   13.8      3  1.521    517    544      0    172   1061   1075      0     0.0  0.000     14     18  0.000  0.000  0.000  0.000  0.000  0.000  0.000    4.65   0.00   0.01      0     14  293.9   0.20   0.49   67.8   0.90    0.38    0.38    0.27    0.12    0.08    0.01       21      23
 1997 198    51    49   14.1      5  1.614    554    592      0    181   1146   1164      0     0.0  0.000     18     22  0.000  0.000  0.000  0.000  0.000  0.000  0.000    4.65   0.00   0.02      0     18  291.5   0.21   0.50   71.1   0.90    0.40    0.40    0.28    0.13    0.09    0.02       23      25
 1997 199    52    50   14.4      5  1.708    592    644      0    191   1236   1260      2     0.0  0.000     24     25  0.000  0.000  0.000  0.000  0.000  0.000  0.000    4.64   0.00   0.02      0     24  288.3   0.21   0.50   74.5   0.90    0.43    0.42    0.30    0.14    0.09    0.02       25      26
 1997 200    53    51   14.7      5  1.807    633    700      0    202   1333   1364      6     3.6  0.000     30     30  0.000  0.000  0.000  0.000  0.000  0.000  0.000    4.64   0.76   0.02      0     30  285.3   0.22   0.50   79.5   0.90    0.45    0.45    0.31    0.15    0.10    0.02       27      28
 1997 201    54    52   15.0      5  1.889    667    746      1    210   1413   1451     12     8.7  0.001     39     34  0.000  0.000  0.000  0.000  0.000  0.000  0.000    4.63   2.63   0.03      0     39  283.4   0.22   0.50   79.5   0.90    0.47    0.47    0.32    0.15    0.10    0.02       28      30
 1997 202    55    53   15.3      5  1.948    687    776      2    215   1463   1511     17    14.4  0.002     48     38  0.000  0.000  0.000  0.000  0.000  0.000  0.000    4.61   5.03   0.03      0     48  283.6   0.23   0.50   79.5   0.90    0.48    0.48    0.33    0.16    0.11    0.02       30      31
 1997 203    56    54   15.6      5  2.045    732    841      4    227   1573   1633     23    19.3  0.003     59     45  0.000  0.000  0.000  0.000  0.000  0.000  0.000    4.58   7.47   0.04      0     59  279.2   0.23   0.50   90.1   0.90    0.50    0.50    0.35    0.16    0.11    0.02       33      33
 1997 204    57    55   15.9      5  2.143    774    901      7    237   1675   1747     29    24.5  0.004     72     52  0.000  0.000  0.000  0.000  0.000  0.000  0.000    4.59   9.81   0.04      0     72  277.1   0.24   0.50   90.1   0.90    0.52    0.52    0.36    0.17    0.12    0.02       35      36
 1997 205    58    56   16.2      5  2.238    813    960     10    247   1774   1861     35    29.6  0.006     87     60  0.000  0.000  0.000  0.000  0.000  0.000  0.000    4.58  11.97   0.05      0     87  275.1   0.24   0.50   90.1   0.90    0.54    0.54    0.38    0.18    0.12    0.02       37      38
 1997 206    59    57   16.5      5  2.331    859   1029     15    258   1888   1992     41    35.4  0.007    105     66  0.000  0.000  0.000  0.000  0.000  0.000  0.000    4.58  13.99   0.05      0    105  271.4   0.25   0.50   91.0   0.90    0.57    0.57    0.40    0.19    0.13    0.02       40      40
 1997 207    60    58   16.8      5  2.430    904   1099     19    269   2004   2126     48    40.4  0.009    123     71  0.000  0.000  0.000  0.000  0.000  0.000  0.000    4.58  15.78   0.06      0    123  268.7   0.25   0.50   92.0   0.90    0.59    0.59    0.41    0.20    0.14    0.03       42      42
 1997 208    61    59   17.1      5  2.528    948   1167     25    280   2115   2258     56    44.4  0.011    143     79  0.000  0.000  0.000  0.000  0.000  0.000  0.000    4.57  17.41   0.06      0    143  266.7   0.25   0.50   92.0   0.90    0.62    0.62    0.43    0.20    0.14    0.03       45      45
 1997 209    62    60   17.4      5  2.623    993   1240     31    291   2234   2398     62    50.0  0.013    164     87  0.000  0.000  0.000  0.000  0.000  0.000  0.000    4.56  19.01   0.07      0    164  264.1   0.26   0.50   93.7   0.90    0.64    0.64    0.45    0.21    0.15    0.03       48      48
 1997 210    63    61   17.8      5  2.698   1023   1292     39    298   2315   2503     72    53.3  0.015    188     96  0.000  0.000  0.000  0.000  0.000  0.000  0.000    4.54  20.48   0.08      0    188  263.6   0.26   0.50   93.7   0.90    0.66    0.66    0.46    0.22    0.15    0.03       51      50
 1997 211    64    62   18.1      5  2.751   1045   1331     47    302   2375   2591     84    56.2  0.018    215    106  0.000  0.000  0.000  0.000  0.000  0.000  0.000    4.51  21.98   0.08      0    215  263.3   0.27   0.50   93.7   0.90    0.67    0.67    0.46    0.22    0.16    0.03       55      53
 1997 212    65    63   18.3      5  2.785   1059   1360     58    305   2419   2664     97    59.6  0.022    245    115  0.000  0.000  0.000  0.000  0.000  0.000  0.000    4.48  23.52   0.09      0    245  263.0   0.27   0.50   93.7   0.90    0.67    0.67    0.47    0.23    0.16    0.03       58      56
 1997 213    66    64   18.6      5  2.835   1081   1401     70    310   2482   2760    108    64.6  0.025    278    124  0.000  0.000  0.000  0.000  0.000  0.000  0.000    4.46  25.07   0.10      0    278  262.3   0.28   0.50   93.7   0.90    0.68    0.68    0.48    0.23    0.16    0.03       62      58
 1997 214    67    65   18.9      5  2.912   1122   1474     82    319   2595   2906    116    71.1  0.028    311    135  0.000  0.000  0.000  0.000  0.000  0.000  0.000    4.45  26.45   0.11      0    311  259.6   0.28   0.50   93.7   0.90    0.71    0.71    0.49    0.24    0.17    0.03       65      61
 1997 215    68    66   19.2      5  2.985   1159   1542     95    328   2701   3046    128    74.1  0.031    344    143  0.000  0.000  0.000  0.000  0.000  0.000  0.000    4.43  27.65   0.11      0    344  257.5   0.28   0.50   93.7   0.90    0.72    0.72    0.51    0.24    0.17    0.03       69      64
 1997 216    69    67   19.5      5  3.033   1180   1585    110    332   2765   3147    142    77.8  0.035    382    151  0.000  0.000  0.000  0.000  0.000  0.000  0.000    4.40  28.95   0.12      0    382  257.0   0.29   0.50   93.7   0.90    0.73    0.73    0.51    0.25    0.17    0.03       73      67
 1997 217    70    68   19.8      5  3.083   1205   1635    127    338   2840   3262    156    81.8  0.039    421    157  0.000  0.000  0.000  0.000  0.000  0.000  0.000    4.38  30.25   0.13      0    421  255.9   0.29   0.50   93.7   0.90    0.75    0.75    0.52    0.25    0.18    0.03       76      70
 1997 218    71    69   20.1      5  3.098   1211   1655    147    338   2867   3331    172    85.1  0.044    464    165  0.000  0.000  0.000  0.000  0.000  0.000  0.000    4.33  31.58   0.14      0    464  255.7   0.30   0.50   93.7   0.90    0.75    0.75    0.52    0.25    0.18    0.03       80      73
 1997 219    72    70   20.4      5  3.137   1231   1698    167    342   2929   3437    188    88.9  0.049    508    176  0.000  0.000  0.000  0.000  0.000  0.000  0.000    4.31  32.88   0.15      0    508  254.8   0.30   0.50   93.7   0.90    0.76    0.76    0.53    0.26    0.18    0.03       84      76
 1997 220    73    71   20.6      5  3.190   1266   1768    190    350   3034   3589    202    93.9  0.053    555    187  0.000  0.000  0.000  0.000  0.000  0.000  0.000    4.29  34.17   0.15      0    555  252.0   0.30   0.50   93.7   0.90    0.78    0.78    0.54    0.26    0.18    0.04       88      80
 1997 221    74    72   20.9      5  3.229   1287   1816    213    354   3102   3704    220    97.1  0.058    602    195  0.000  0.000  0.000  0.000  0.000  0.000  0.000    4.27  35.40   0.16      0    602  251.0   0.31   0.50   93.7   0.90    0.79    0.79    0.55    0.27    0.19    0.04       92      83
 1997 222    75    73   21.2      5  3.279   1318   1882    239    361   3200   3853    234   102.4  0.062    653    205  0.000  0.000  0.000  0.000  0.000  0.000  0.000    4.25  36.63   0.17      0    653  248.8   0.31   0.50   93.7   0.90    0.80    0.80    0.56    0.27    0.19    0.04       97      86
 1997 223    76    74   21.5      5  3.326   1349   1950    267    367   3299   4004    246   108.4  0.067    705    211  0.000  0.000  0.000  0.000  0.000  0.000  0.000    4.23  37.83   0.18      0    705  246.6   0.31   0.50   93.7   0.90    0.82    0.82    0.57    0.28    0.19    0.04      101      89
 1997 224    77    75   21.7      5  3.362   1372   2005    296    372   3377   4137    257   115.2  0.072    760    220  0.000  0.000  0.000  0.000  0.000  0.000  0.000    4.20  38.98   0.18      0    760  245.1   0.32   0.50   93.7   0.90    0.83    0.83    0.58    0.28    0.20    0.04      105      93
 1997 225    78    76   22.0      5  3.400   1396   2062    327    377   3457   4273    271   120.7  0.076    815    231  0.000  0.000  0.000  0.000  0.000  0.000  0.000    4.18  40.06   0.19      0    815  243.6   0.32   0.50   93.7   0.90    0.83    0.84    0.59    0.28    0.20    0.04      109      96
 1997 226    79    77   22.3      5  3.434   1417   2115    358    380   3532   4403    289   123.9  0.081    871    241  0.000  0.000  0.000  0.000  0.000  0.000  0.000    4.15  41.10   0.20      0    871  242.4   0.32   0.50   93.7   0.90    0.83    0.85    0.59    0.29    0.20    0.04      114     100
 1997 227    80    78   22.5      5  3.432   1416   2125    393    379   3541   4474    306   128.6  0.088    933    252  0.000  0.000  0.000  0.000  0.000  0.000  0.000    4.11  42.19   0.21      0    933  242.4   0.33   0.50   93.7   0.90    0.83    0.85    0.59    0.29    0.20    0.04      118     104
 1997 228    81    79   22.8      5  3.462   1438   2180    427    383   3618   4608    320   133.5  0.093    990    263  0.000  0.000  0.000  0.000  0.000  0.000  0.000    4.09  43.16   0.21      0    990  240.8   0.33   0.50   93.7   0.90    0.84    0.86    0.60    0.29    0.20    0.04      123     107
 1997 229    82    80   23.0      5  3.475   1447   2211    465    384   3657   4711    336   138.6  0.099   1053    274  0.000  0.000  0.000  0.000  0.000  0.000  0.000    4.05  44.17   0.22      0   1053  240.2   0.33   0.50   93.7   0.90    0.84    0.86    0.60    0.29    0.21    0.04      127     111
 1997 230    83    81   23.3      5  3.499   1464   2260    502    387   3724   4838    346   144.9  0.104   1114    284  0.000  0.000  0.000  0.000  0.000  0.000  0.000    4.03  45.09   0.23      0   1114  238.9   0.34   0.50   93.7   0.90    0.85    0.87    0.61    0.29    0.21    0.04      132     114
 1997 231    84    82   23.5      5  3.522   1485   2316    543    391   3801   4982    361   150.6  0.109   1181    294  0.000  0.000  0.000  0.000  0.000  0.000  0.000    4.01  46.03   0.24      0   1181  237.2   0.34   0.50   93.7   0.90    0.86    0.88    0.61    0.30    0.21    0.04      136     118
 1997 232    85    83   23.8      5  3.542   1503   2368    587    394   3871   5121    379   154.8  0.115   1250    301  0.000  0.000  0.000  0.000  0.000  0.000  0.000    3.99  46.94   0.24      0   1250  235.7   0.34   0.50   93.7   0.90    0.87    0.88    0.62    0.30    0.21    0.04      141     121
 1997 233    86    84   24.0      5  3.568   1525   2429    629    398   3955   5270    394   159.5  0.119   1315    310  0.000  0.000  0.000  0.000  0.000  0.000  0.000    3.97  47.79   0.25      0   1315  233.9   0.35   0.50   93.7   0.90    0.88    0.89    0.62    0.30    0.21    0.04      146     125
 1997 234    87    85   24.2      5  3.578   1534   2463    672    398   3998   5380    412   163.0  0.125   1382    318  0.000  0.000  0.000  0.000  0.000  0.000  0.000    3.94  48.64   0.26      0   1382  233.2   0.35   0.50   93.7   0.90    0.88    0.90    0.63    0.31    0.21    0.04      151     129
 1997 235    88    86   24.5      5  3.554   1526   2465    719    394   3992   5419    431   167.1  0.133   1427    326  0.000  0.000  0.000  0.000  0.000  0.000  0.000    3.89  50.41   0.26      0   1427  232.8   0.35   0.50   91.9   0.90    0.87    0.89    0.62    0.30    0.21    0.04      156     135
 1997 236    89    87   24.7      5  3.558   1533   2496    770    394   4029   5530    447   172.0  0.139   1501    336  0.000  0.000  0.000  0.000  0.000  0.000  0.000    3.86  51.27   0.27      0   1501  232.1   0.36   0.50   91.9   0.90    0.88    0.89    0.62    0.30    0.21    0.04      161     138
 1997 237    90    88   24.9      5  3.570   1547   2544    821    396   4091   5666    464   176.8  0.145   1575    346  0.000  0.000  0.000  0.000  0.000  0.000  0.000    3.84  52.09   0.28      0   1575  230.7   0.36   0.50   91.9   0.90    0.88    0.89    0.62    0.30    0.21    0.04      166     142
 1997 238    91    89   25.1      5  3.569   1551   2569    875    396   4120   5774    480   182.2  0.151   1654    356  0.000  0.000  0.000  0.000  0.000  0.000  0.000    3.81  52.89   0.29      0   1654  230.1   0.36   0.50   91.9   0.90    0.88    0.89    0.63    0.31    0.21    0.04      172     146
 1997 239    92    90   25.3      5  3.572   1558   2600    929    396   4158   5890    491   189.1  0.158   1732    363  0.000  0.000  0.000  0.000  0.000  0.000  0.000    3.78  53.64   0.29      0   1732  229.3   0.36   0.50   91.9   0.90    0.88    0.90    0.63    0.31    0.22    0.04      176     149
 1997 240    93    91   25.5      5  3.561   1553   2605    985    394   4159   5949    506   194.6  0.166   1790    367  0.000  0.000  0.000  0.000  0.000  0.000  0.000    3.74  55.01   0.30      0   1790  229.3   0.36   0.50   91.9   0.90    0.88    0.89    0.62    0.30    0.21    0.04      181     153
 1997 241    94    92   25.6      5  3.567   1564   2647   1042    395   4211   6082    520   200.6  0.171   1871    375  0.000  0.000  0.000  0.000  0.000  0.000  0.000    3.73  55.73   0.31      0   1871  228.0   0.37   0.50   91.9   0.90    0.88    0.90    0.63    0.31    0.22    0.04      186     156
 1997 242    95    93   25.8      5  3.570   1573   2684   1102    395   4257   6210    534   206.5  0.177   1953    384  0.000  0.000  0.000  0.000  0.000  0.000  0.000    3.71  56.43   0.31      0   1953  227.0   0.37   0.50   91.9   0.90    0.88    0.90    0.63    0.31    0.22    0.04      191     160
 1997 243    96    94   26.0      5  3.573   1582   2724   1162    396   4306   6340    550   211.2  0.183   2034    391  0.000  0.000  0.000  0.000  0.000  0.000  0.000    3.68  57.11   0.32      0   2034  225.9   0.37   0.50   91.9   0.90    0.89    0.90    0.63    0.31    0.22    0.04      196     164
 1997 244    97    95   26.2      5  3.573   1587   2753   1220    396   4340   6453    566   215.5  0.189   2112    399  0.000  0.000  0.000  0.000  0.000  0.000  0.000    3.66  57.76   0.33      0   2112  225.1   0.37   0.50   91.9   0.90    0.89    0.90    0.63    0.31    0.22    0.04      201     168
 1997 245    98    96   26.4      5  3.570   1591   2780   1283    395   4370   6566    582   220.4  0.195   2195    404  0.000  0.000  0.000  0.000  0.000  0.000  0.000    3.64  58.43   0.33      0   2195  224.4   0.37   0.50   91.9   0.90    0.89    0.90    0.63    0.31    0.22    0.04      206     171
 1997 246    99    97   26.6      5  3.558   1586   2787   1348    393   4373   6632    595   226.6  0.203   2259    412  0.000  0.000  0.000  0.000  0.000  0.000  0.000    3.60  59.66   0.34      0   2259  224.3   0.38   0.50   91.9   0.90    0.88    0.89    0.63    0.31    0.22    0.04      210     175
 1997 247   100    98   26.7      5  3.547   1582   2793   1413    390   4375   6699    602   234.8  0.211   2323    420  0.000  0.000  0.000  0.000  0.000  0.000  0.000    3.56  60.80   0.35      0   2323  224.2   0.38   0.50   91.9   0.90    0.88    0.89    0.62    0.30    0.21    0.04      215     179
 1997 248   101    99   26.9      5  3.543   1586   2820   1474    390   4405   6810    615   239.8  0.217   2404    428  0.000  0.000  0.000  0.000  0.000  0.000  0.000    3.54  61.32   0.35      0   2404  223.4   0.38   0.50   91.9   0.90    0.88    0.89    0.62    0.30    0.21    0.04      219     182
 1997 249   102   100   27.1      5  3.533   1583   2830   1538    387   4413   6893    629   244.4  0.223   2479    435  0.000  0.000  0.000  0.000  0.000  0.000  0.000    3.51  62.04   0.36      0   2479  223.2   0.38   0.50   91.9   0.90    0.87    0.89    0.62    0.30    0.21    0.04      223     186
 1997 250   103   101   27.2      5  3.525   1583   2848   1604    386   4431   6995    642   249.7  0.229   2565    442  0.000  0.000  0.000  0.000  0.000  0.000  0.000    3.48  62.53   0.37      0   2565  222.7   0.38   0.50   91.9   0.90    0.87    0.88    0.62    0.30    0.21    0.04      227     189
 1997 251   104   102   27.4      5  3.521   1588   2880   1668    386   4469   7115    664   251.4  0.234   2647    447  0.000  0.000  0.000  0.000  0.000  0.000  0.000    3.47  63.01   0.37      0   2647  221.7   0.39   0.50   91.9   0.90    0.87    0.88    0.62    0.30    0.21    0.04      232     193
 1997 252   105   103   27.5      5  3.510   1584   2887   1733    383   4471   7179    677   256.0  0.241   2709    452  0.000  0.000  0.000  0.000  0.000  0.000  0.000    3.43  63.99   0.38      0   2709  221.6   0.39   0.50   91.9   0.90    0.87    0.88    0.61    0.30    0.21    0.04      236     197
 1997 253   106   104   27.5      5  3.500   1582   2899   1800    381   4481   7269    690   260.8  0.248   2787    458  0.000  0.000  0.000  0.000  0.000  0.000  0.000    3.41  64.59   0.38      0   2787  221.3   0.39   0.50   91.9   0.90    0.86    0.87    0.61    0.30    0.21    0.04      240     200
 1997 254   107   105   27.5      5  3.490   1580   2912   1869    379   4492   7356    703   265.8  0.254   2864    463  0.000  0.000  0.000  0.000  0.000  0.000  0.000    3.38  65.27   0.39      0   2864  220.9   0.39   0.50   91.9   0.90    0.86    0.87    0.61    0.30    0.21    0.04      244     204
 1997 255   108   106   27.5      5  3.484   1582   2935   1936    378   4516   7464    703   275.3  0.259   2947    469  0.000  0.000  0.000  0.000  0.000  0.000  0.000    3.36  65.68   0.39      0   2947  220.3   0.39   0.50   91.9   0.90    0.86    0.87    0.61    0.30    0.21    0.04      247     207
 1997 256   109   107   27.5      5  3.479   1585   2962   1998    377   4546   7571    714   279.6  0.264   3024    474  0.000  0.000  0.000  0.000  0.000  0.000  0.000    3.35  66.06   0.40      0   3024  219.5   0.40   0.50   91.9   0.90    0.85    0.87    0.61    0.30    0.21    0.04      251     211
 1997 257   110   108   27.5      5  3.469   1583   2975   2065    375   4558   7663    726   284.4  0.269   3105    476  0.000  0.000  0.000  0.000  0.000  0.000  0.000    3.32  66.51   0.41      0   3105  219.1   0.40   0.50   91.9   0.90    0.85    0.86    0.60    0.30    0.21    0.04      255     214
 1997 258   111   109   27.5      5  3.463   1586   3001   2128    374   4586   7768    735   289.5  0.274   3181    481  0.000  0.000  0.000  0.000  0.000  0.000  0.000    3.31  66.89   0.41      0   3181  218.4   0.40   0.50   91.9   0.90    0.85    0.86    0.60    0.29    0.21    0.04      258     218
 1997 259   112   110   27.5      5  3.456   1587   3025   2193    372   4612   7872    743   295.0  0.279   3260    485  0.000  0.000  0.000  0.000  0.000  0.000  0.000    3.29  67.26   0.41      0   3260  217.7   0.40   0.50   91.9   0.90    0.85    0.86    0.60    0.29    0.21    0.04      262     221
 1997 260   113   111   27.5      5  3.449   1590   3052   2255    371   4642   7978    753   299.5  0.283   3336    490  0.000  0.000  0.000  0.000  0.000  0.000  0.000    3.27  67.60   0.42      0   3336  216.9   0.40   0.50   91.9   0.90    0.84    0.86    0.60    0.29    0.21    0.04      265     225
 1997 261   114   112   27.5      5  3.432   1586   3061   2309    368   4647   8034    762   303.2  0.287   3387    494  0.000  0.000  0.000  0.000  0.000  0.000  0.000    3.22  68.17   0.42      0   3387  216.4   0.40   0.50   91.9   0.90    0.84    0.85    0.59    0.29    0.20    0.04      269     228
 1997 262   115   113   27.5      5  3.421   1583   3074   2372    366   4657   8120    771   307.7  0.292   3463    498  0.000  0.000  0.000  0.000  0.000  0.000  0.000    3.20  68.51   0.43      0   3463  216.1   0.40   0.50   91.9   0.90    0.83    0.84    0.59    0.29    0.20    0.04      272     231
 1997 263   116   114   27.5      5  3.410   1580   3081   2432    363   4660   8191    781   311.5  0.297   3531    503  0.000  0.000  0.000  0.000  0.000  0.000  0.000    3.17  68.88   0.43      0   3531  215.9   0.40   0.50   91.9   0.90    0.83    0.84    0.59    0.29    0.20    0.04      276     235
 1997 264   117   115   27.5      5  3.405   1583   3110   2490    362   4693   8292    783   317.8  0.300   3599    507  0.000  0.000  0.000  0.000  0.000  0.000  0.000    3.16  69.18   0.43      0   3599  215.1   0.40   0.50   91.9   0.90    0.83    0.84    0.58    0.29    0.20    0.04      279     238
 1997 265   118   116   27.5      5  3.399   1585   3134   2545    360   4719   8382    791   321.7  0.304   3664    511  0.000  0.000  0.000  0.000  0.000  0.000  0.000    3.14  69.47   0.44      0   3664  214.5   0.40   0.50   91.9   0.90    0.82    0.83    0.58    0.29    0.20    0.04      282     242
 1997 266   119   117   27.5      5  3.385   1580   3138   2589    357   4718   8423    799   324.1  0.307   3704    511  0.000  0.000  0.000  0.000  0.000  0.000  0.000    3.10  69.88   0.44      0   3704  214.2   0.40   0.50   91.9   0.90    0.82    0.83    0.58    0.28    0.20    0.04      285     245
 1997 267   120   118   27.5      5  3.379   1584   3167   2641    356   4750   8516    806   327.5  0.310   3766    514  0.000  0.000  0.000  0.000  0.000  0.000  0.000    3.09  70.13   0.44      0   3766  213.4   0.40   0.50   91.9   0.90    0.81    0.82    0.58    0.28    0.20    0.04      288     248
 1997 268   121   119   27.5      5  3.365   1580   3173   2690    352   4753   8565    814   330.6  0.314   3812    517  0.000  0.000  0.000  0.000  0.000  0.000  0.000    3.05  70.55   0.45      0   3812  213.0   0.40   0.50   91.9   0.90    0.81    0.82    0.57    0.28    0.20    0.04      291     251
 1997 269   122   120   27.5      5  3.359   1580   3191   2739    351   4771   8640    821   333.8  0.317   3870    519  0.000  0.000  0.000  0.000  0.000  0.000  0.000    3.03  70.78   0.45      0   3870  212.6   0.40   0.50   91.9   0.90    0.80    0.81    0.57    0.28    0.20    0.04      294     254
 1997 270   123   121   27.5      8  3.347   1593   3272   2783    347   4864   8776    827   336.3  0.317   3912    522  0.000  0.000  0.534  0.000  0.000  0.000  0.000    2.97  71.15   0.45      0   3912  210.2   0.40   0.50   91.9   0.90    0.80    0.81    0.56    0.28    0.19    0.04      296     258

*DSSAT Cropping System Model Ver. 4.5.1.023 -Stub         DEC 04, 2014; 01:35:35
                                                                                
*RUN   3        : 97 DATE2 CHINESE          CRGRO045 GHNY9701    3              
 MODEL          : CRGRO045 - Peanut                                             
 EXPERIMENT     : GHNY9701 PN 1997 VARIETY X PLANTING DATE EXPERIMENT           
 DATA PATH      :                                                               
 TREATMENT  3   : 97 DATE2 CHINESE          CRGRO045                            
  
!                                                                                                                                                                                                                                                    Root Dens. (cm/cm3) by soil depth (cm):
!                                                                                                                                                                                                                                                    0-5    5-15   15-30   30-45   45-60   60-90
@YEAR DOY   DAS   DAP   L#SD   GSTD   LAID   LWAD   SWAD   GWAD   RWAD   VWAD   CWAD   G#AD    GWGD   HIAD   PWAD   P#AD   WSPD   WSGD   NSTD  PST1A  PST2A   KSTD   EWSD    LN%D   SH%D   HIPD   PWDD   PWTD   SLAD   CHTD   CWID   NWAD   RDPD    RL1D    RL2D    RL3D    RL4D    RL5D    RL6D    SNW0C   SNW1C
 1997 177     2     0    0.0      0  0.000      0      0      0      0      0      0      0     0.0  0.000      0      0  0.000  0.000  0.000  0.000  0.000  0.000  0.000    0.00   0.00   0.00      0      0    0.0   0.00   0.00    0.0   0.00    0.00    0.00    0.00    0.00    0.00    0.00        0       0
 1997 178     3     1    0.0      0  0.000      0      0      0      0      0      0      0     0.0  0.000      0      0  0.000  0.000  0.000  0.000  0.000  0.000  0.000    0.00   0.00   0.00      0      0    0.0   0.00   0.00    0.0   0.00    0.00    0.00    0.00    0.00    0.00    0.00        0       0
 1997 179     4     2    0.0      0  0.000      0      0      0      0      0      0      0     0.0  0.000      0      0  0.000  0.000  0.000  0.000  0.000  0.000  0.000    0.00   0.00   0.00      0      0    0.0   0.00   0.00    0.0   0.00    0.00    0.00    0.00    0.00    0.00    0.00        0       0
 1997 180     5     3    0.0      0  0.000      0      0      0      0      0      0      0     0.0  0.000      0      0  0.000  0.000  0.000  0.000  0.000  0.000  0.000    0.00   0.00   0.00      0      0    0.0   0.00   0.00    0.0   0.00    0.00    0.00    0.00    0.00    0.00    0.00        0       0
 1997 181     6     4    0.0      0  0.000      0      0      0      0      0      0      0     0.0  0.000      0      0  0.000  0.000  0.000  0.000  0.000  0.000  0.000    0.00   0.00   0.00      0      0    0.0   0.00   0.00    0.0   0.00    0.00    0.00    0.00    0.00    0.00    0.00        0       0
 1997 182     7     5    0.0      0  0.000      0      0      0      0      0      0      0     0.0  0.000      0      0  0.000  0.000  0.000  0.000  0.000  0.000  0.000    0.00   0.00   0.00      0      0    0.0   0.00   0.00    0.0   0.00    0.00    0.00    0.00    0.00    0.00    0.00        0       0
 1997 183     8     6    0.0      0  0.000      0      0      0      0      0      0      0     0.0  0.000      0      0  0.000  0.000  0.000  0.000  0.000  0.000  0.000    0.00   0.00   0.00      0      0    0.0   0.00   0.00    0.0   0.00    0.00    0.00    0.00    0.00    0.00    0.00        0       0
 1997 184     9     7    0.1      0  0.013      9      2      0      9     11     11      0     0.0  0.000      0      0  0.000  0.000  0.000  0.000  0.000  0.000  0.000    5.36   0.00   0.00      0      0  145.6   0.02   0.03    1.4   0.26    0.03    0.03    0.02    0.00    0.00    0.00        0       0
 1997 185    10     8    0.4      0  0.015      9      2      0     10     11     11      0     0.0  0.000      0      0  0.000  0.000  0.618  0.000  0.000  0.000  0.000    5.31   0.00   0.00      0      0  159.8   0.02   0.03    1.4   0.29    0.03    0.03    0.02    0.00    0.00    0.00        0       0
 1997 186    11     9    0.7      0  0.018     10      2      0     11     12     12      0     0.0  0.000      0      0  0.000  0.000  0.363  0.000  0.000  0.000  0.000    5.30   0.00   0.00      0      0  178.8   0.03   0.04    1.5   0.32    0.03    0.03    0.02    0.00    0.00    0.00        0       0
 1997 187    12    10    1.0      0  0.024     12      2      0     11     14     14      0     0.0  0.000      0      0  0.000  0.000  0.000  0.000  0.000  0.000  0.000    5.27   0.00   0.00      0      0  200.2   0.03   0.05    1.5   0.34    0.04    0.04    0.02    0.00    0.00    0.00        0       0
 1997 188    13    11    1.6      0  0.030     14      3      0     12     16     16      0     0.0  0.000      0      0  0.000  0.000  0.000  0.000  0.000  0.000  0.000    5.17   0.00   0.00      0      0  219.8   0.04   0.05    1.8   0.37    0.04    0.04    0.02    0.00    0.00    0.00        0       1
 1997 189    14    12    2.1      0  0.038     16      3      0     13     19     19      0     0.0  0.000      0      0  0.000  0.000  0.089  0.000  0.000  0.000  0.000    5.00   0.00   0.00      0      0  234.5   0.05   0.07    2.2   0.40    0.04    0.04    0.02    0.00    0.00    0.00        0       1
 1997 190    15    13    2.6      0  0.046     18      3      0     14     22     22      0     0.0  0.000      0      0  0.000  0.000  0.072  0.000  0.000  0.000  0.000    4.87   0.00   0.00      0      0  247.6   0.06   0.08    2.6   0.42    0.04    0.04    0.03    0.00    0.00    0.00        0       1
 1997 191    16    14    3.1      0  0.054     21      4      0     15     25     25      0     0.0  0.000      0      0  0.000  0.000  0.000  0.000  0.000  0.000  0.000    4.86   0.00   0.00      0      0  261.1   0.07   0.09    2.8   0.45    0.04    0.04    0.03    0.00    0.00    0.00        0       1
 1997 192    17    15    3.6      0  0.062     23      5      0     16     28     28      0     0.0  0.000      0      0  0.000  0.000  0.000  0.000  0.000  0.000  0.000    4.83   0.00   0.00      0      0  272.6   0.07   0.11    3.3   0.48    0.05    0.05    0.03    0.00    0.00    0.00        0       1
 1997 193    18    16    4.0      0  0.071     26      6      0     18     32     32      0     0.0  0.000      0      0  0.000  0.000  0.000  0.000  0.000  0.000  0.000    4.73   0.00   0.00      0      0  277.6   0.08   0.12    4.0   0.50    0.05    0.05    0.03    0.01    0.00    0.00        0       1
 1997 194    19    17    4.4      0  0.080     28      9      0     21     37     37      0     0.0  0.000      0      0  0.000  0.000  0.000  0.000  0.000  0.000  0.000    4.65   0.00   0.00      0      0  282.5   0.09   0.13    4.8   0.53    0.06    0.06    0.04    0.01    0.00    0.00        0       1
 1997 195    20    18    4.8      0  0.088     31     11      0     23     42     42      0     0.0  0.000      0      0  0.000  0.000  0.000  0.000  0.000  0.000  0.000    4.65   0.00   0.00      0      0  288.0   0.10   0.14    5.4   0.56    0.06    0.06    0.04    0.01    0.00    0.00        0       2
 1997 196    21    19    5.1      0  0.100     34     13      0     25     47     47      0     0.0  0.000      0      0  0.000  0.000  0.000  0.000  0.000  0.000  0.000    4.69   0.00   0.00      0      0  296.4   0.10   0.15    5.5   0.59    0.07    0.07    0.04    0.01    0.00    0.00        1       2
 1997 197    22    20    5.4      0  0.109     36     15      0     26     51     51      0     0.0  0.000      0      0  0.000  0.000  0.000  0.000  0.000  0.000  0.000    4.71   0.00   0.00      0      0  301.4   0.11   0.16    5.7   0.61    0.07    0.07    0.05    0.01    0.00    0.00        1       2
 1997 198    23    21    5.7      0  0.125     41     18      0     28     59     59      0     0.0  0.000      0      0  0.000  0.000  0.000  0.000  0.000  0.000  0.000    4.63   0.00   0.00      0      0  306.1   0.11   0.17    6.8   0.64    0.07    0.07    0.05    0.01    0.01    0.00        1       2
 1997 199    24    22    6.0      0  0.142     46     22      0     30     68     68      0     0.0  0.000      0      0  0.000  0.000  0.000  0.000  0.000  0.000  0.000    4.57   0.00   0.00      0      0  308.5   0.12   0.18    8.1   0.67    0.08    0.08    0.05    0.02    0.01    0.00        1       2
 1997 200    25    23    6.3      0  0.161     52     26      0     32     78     78      0     0.0  0.000      0      0  0.000  0.000  0.000  0.000  0.000  0.000  0.000    4.52   0.00   0.00      0      0  311.0   0.12   0.19    9.8   0.69    0.08    0.08    0.06    0.02    0.01    0.00        1       3
[...]
 1997 260    57    55   16.1      5  2.249    834    997      6    253   1832   1902     26    24.6  0.003     70     54  0.000  0.000  0.000  0.000  0.000  0.000  0.000    4.63   9.15   0.04      0     70  269.5   0.24   0.50   90.4   0.90    0.56    0.56    0.39    0.18    0.13    0.02       38      37
 1997 261    58    56   16.4      5  2.311    859   1036     10    259   1895   1981     33    29.7  0.005     86     61  0.000  0.000  0.000  0.000  0.000  0.000  0.000    4.61  11.20   0.04      0     86  269.1   0.24   0.50   90.4   0.90    0.57    0.57    0.40    0.19    0.13    0.02       41      40
 1997 262    59    57   16.7      5  2.402    899   1098     14    268   1997   2101     39    34.6  0.006    104     68  0.000  0.000  0.000  0.000  0.000  0.000  0.000    4.60  13.06   0.05      0    104  267.3   0.25   0.50   90.4   0.90    0.59    0.59    0.41    0.20    0.14    0.03       44      42
 1997 263    60    58   17.0      5  2.490    935   1156     18    277   2090   2213     47    38.3  0.008    122     75  0.000  0.000  0.000  0.000  0.000  0.000  0.000    4.59  14.74   0.06      0    122  266.4   0.25   0.50   90.4   0.90    0.61    0.61    0.42    0.20    0.14    0.03       47      45
 1997 264    61    59   17.4      5  2.585    980   1228     23    288   2208   2350     56    41.8  0.010    142     84  0.000  0.000  0.000  0.000  0.000  0.000  0.000    4.58  16.34   0.06      0    142  263.9   0.26   0.50   93.9   0.90    0.63    0.63    0.44    0.21    0.15    0.03       50      47
 1997 265    62    60   17.7      5  2.679   1022   1297     29    297   2319   2483     66    44.6  0.012    164     93  0.000  0.000  0.000  0.000  0.000  0.000  0.000    4.57  17.89   0.07      0    164  262.2   0.26   0.50   93.9   0.90    0.65    0.65    0.46    0.22    0.15    0.03       53      50
 1997 266    63    61   18.0      5  2.717   1037   1327     37    300   2363   2554     77    48.8  0.015    191    100  0.000  0.000  0.000  0.000  0.000  0.000  0.000    4.53  19.64   0.07      0    191  262.1   0.27   0.50   93.9   0.90    0.66    0.66    0.46    0.22    0.15    0.03       56      52
 1997 267    64    62   18.3      5  2.799   1077   1396     46    310   2473   2690     88    52.8  0.017    218    109  0.000  0.000  0.000  0.000  0.000  0.000  0.000    4.52  21.27   0.08      0    218  259.8   0.27   0.50   93.9   0.90    0.68    0.68    0.48    0.23    0.16    0.03       60      55
 1997 268    65    63   18.6      5  2.841   1095   1431     57    313   2526   2774     99    57.9  0.021    249    118  0.000  0.000  0.000  0.000  0.000  0.000  0.000    4.49  22.92   0.09      0    249  259.5   0.28   0.50   93.9   0.90    0.69    0.69    0.48    0.23    0.16    0.03       63      58
 1997 269    66    64   18.9      5  2.909   1128   1491     68    321   2619   2898    109    62.3  0.023    279    128  0.000  0.000  0.000  0.000  0.000  0.000  0.000    4.47  24.38   0.10      0    279  257.9   0.28   0.50   93.9   0.90    0.71    0.71    0.49    0.24    0.17    0.03       67      61
 1997 270    67    65   19.2      5  2.988   1169   1564     80    330   2733   3043    122    65.5  0.026    310    138  0.000  0.000  0.000  0.000  0.000  0.000  0.000    4.46  25.70   0.10      0    310  255.7   0.28   0.50   94.7   0.90    0.73    0.73    0.51    0.25    0.17    0.03       71      64
 1997 271    68    66   19.4      5  3.051   1208   1637     94    339   2845   3191    136    69.0  0.029    346    144  0.000  0.000  0.000  0.000  0.000  0.000  0.000    4.45  27.15   0.11      0    346  252.5   0.29   0.50   94.7   0.90    0.75    0.75    0.52    0.25    0.18    0.03       75      67
 1997 272    69    67   19.7      5  3.122   1245   1707    109    348   2953   3334    151    72.0  0.033    381    154  0.000  0.000  0.000  0.000  0.000  0.000  0.000    4.43  28.51   0.11      0    381  250.7   0.29   0.50   94.7   0.90    0.77    0.77    0.53    0.26    0.18    0.03       79      70
 1997 273    70    68   20.0      5  3.185   1279   1773    126    355   3052   3471    161    77.8  0.036    420    162  0.000  0.000  0.000  0.000  0.000  0.000  0.000    4.41  29.93   0.12      0    420  249.1   0.29   0.50   94.7   0.90    0.78    0.78    0.55    0.26    0.18    0.04       83      73
 1997 274    71    69   20.3      5  3.250   1312   1841    143    362   3153   3611    176    81.3  0.040    458    171  0.000  0.000  0.000  0.000  0.000  0.000  0.000    4.40  31.24   0.13      0    458  247.6   0.30   0.50   94.7   0.90    0.80    0.80    0.56    0.27    0.19    0.04       88      77
 1997 275    72    70   20.6      5  3.314   1348   1913    162    370   3261   3759    190    85.3  0.043    498    180  0.000  0.000  0.000  0.000  0.000  0.000  0.000    4.38  32.52   0.13      0    498  245.8   0.30   0.50   94.7   0.90    0.82    0.82    0.57    0.28    0.19    0.04       93      80
 1997 276    73    71   20.9      5  3.350   1372   1967    185    375   3339   3886    206    90.0  0.048    547    191  0.000  0.000  0.000  0.000  0.000  0.000  0.000    4.35  33.90   0.14      0    547  244.1   0.31   0.50   94.7   0.90    0.83    0.83    0.58    0.28    0.20    0.04       97      83
 1997 277    74    72   21.2      5  3.392   1400   2028    209    381   3428   4024    222    94.5  0.052    596    202  0.000  0.000  0.000  0.000  0.000  0.000  0.000    4.33  35.16   0.15      0    596  242.3   0.31   0.50   94.7   0.90    0.84    0.84    0.59    0.29    0.20    0.04      102      86
 1997 278    75    73   21.4      5  3.401   1404   2046    236    381   3451   4098    232   101.5  0.057    647    212  0.000  0.000  0.000  0.000  0.000  0.000  0.000    4.28  36.39   0.16      0    647  242.1   0.31   0.50   94.7   0.90    0.84    0.84    0.59    0.29    0.20    0.04      107      90
 1997 279    76    74   21.7      5  3.443   1434   2112    262    387   3545   4244    249   105.4  0.062    698    222  0.000  0.000  0.000  0.000  0.000  0.000  0.000    4.27  37.53   0.16      0    698  240.2   0.32   0.50   94.7   0.90    0.86    0.86    0.60    0.29    0.20    0.04      112      93
 1997 280    77    75   21.9      5  3.478   1460   2173    292    393   3633   4389    261   111.9  0.066    756    233  0.000  0.000  0.000  0.000  0.000  0.000  0.000    4.24  38.60   0.17      0    756  238.2   0.32   0.50   94.7   0.90    0.87    0.87    0.61    0.30    0.21    0.04      117      96
 1997 281    78    76   22.2      5  3.479   1459   2184    322    391   3643   4454    276   116.7  0.072    811    243  0.000  0.000  0.000  0.000  0.000  0.000  0.000    4.20  39.66   0.18      0    811  238.4   0.32   0.50   94.7   0.90    0.87    0.87    0.61    0.30    0.21    0.04      122     100
 1997 282    79    77   22.5      5  3.513   1480   2236    353    395   3715   4582    292   120.8  0.077    867    254  0.000  0.000  0.000  0.000  0.000  0.000  0.000    4.17  40.68   0.19      0    867  237.5   0.33   0.50   94.7   0.90    0.88    0.88    0.61    0.30    0.21    0.04      127     104
 1997 283    80    78   22.8      5  3.546   1500   2289    385    398   3789   4712    310   124.2  0.082    923    261  0.000  0.000  0.000  0.000  0.000  0.000  0.000    4.15  41.69   0.20      0    923  236.4   0.33   0.50   94.7   0.90    0.89    0.89    0.62    0.30    0.21    0.04      133     108
 1997 284    81    79   23.0      5  3.577   1520   2344    419    402   3864   4845    327   128.3  0.086    981    271  0.000  0.000  0.000  0.000  0.000  0.000  0.000    4.12  42.71   0.20      0    981  235.3   0.33   0.50   94.7   0.90    0.89    0.90    0.62    0.30    0.21    0.04      138     112
 1997 285    82    80   23.3      5  3.602   1537   2391    455    404   3928   4969    344   132.3  0.092   1041    282  0.000  0.000  0.000  0.000  0.000  0.000  0.000    4.10  43.69   0.21      0   1041  234.3   0.34   0.50   94.7   0.90    0.90    0.90    0.63    0.31    0.22    0.04      143     116
 1997 286    83    81   23.5      5  3.626   1556   2444    493    407   4000   5103    361   136.6  0.097   1103    289  0.000  0.000  0.000  0.000  0.000  0.000  0.000    4.07  44.67   0.22      0   1103  233.1   0.34   0.50   94.7   0.90    0.91    0.91    0.63    0.31    0.22    0.04      149     120
 1997 287    84    82   23.8      5  3.630   1559   2465    534    407   4024   5193    378   141.2  0.103   1169    298  0.000  0.000  0.000  0.000  0.000  0.000  0.000    4.04  45.67   0.23      0   1169  232.8   0.34   0.50   94.7   0.90    0.91    0.91    0.63    0.31    0.22    0.04      154     123
 1997 288    85    83   24.0      5  3.646   1575   2515    578    409   4091   5330    395   146.4  0.108   1239    308  0.000  0.000  0.000  0.000  0.000  0.000  0.000    4.01  46.66   0.23      0   1239  231.4   0.34   0.50   94.7   0.90    0.92    0.92    0.64    0.31    0.22    0.04      159     127
 1997 289    86    84   24.3      5  3.663   1593   2567    623    412   4160   5468    424   146.9  0.114   1308    317  0.000  0.000  0.000  0.000  0.000  0.000  0.000    3.99  47.61   0.24      0   1308  230.0   0.35   0.50   94.7   0.90    0.92    0.92    0.64    0.31    0.22    0.04      165     131
 1997 290    87    85   24.5      5  3.657   1591   2578    671    410   4168   5549    441   151.9  0.121   1380    326  0.000  0.000  0.000  0.000  0.000  0.000  0.000    3.95  48.58   0.25      0   1380  229.9   0.35   0.50   94.7   0.90    0.92    0.92    0.64    0.31    0.22    0.04      171     135
 1997 291    88    86   24.7      5  3.653   1590   2591    717    408   4180   5629    459   156.1  0.127   1449    335  0.000  0.000  0.000  0.000  0.000  0.000  0.000    3.91  49.50   0.26      0   1449  229.8   0.35   0.50   94.7   0.90    0.92    0.92    0.64    0.31    0.22    0.04      176     139
 1997 292    89    87   25.0      5  3.644   1587   2602    772    407   4189   5718    470   164.2  0.135   1529    342  0.000  0.000  0.000  0.000  0.000  0.000  0.000    3.88  50.50   0.27      0   1529  229.6   0.36   0.50   94.7   0.90    0.92    0.92    0.64    0.31    0.22    0.04      181     142
 1997 293    90    88   25.2      5  3.636   1584   2610    825    404   4195   5796    486   169.9  0.142   1602    352  0.000  0.000  0.000  0.000  0.000  0.000  0.000    3.84  51.51   0.28      0   1602  229.5   0.36   0.50   94.7   0.90    0.91    0.91    0.64    0.31    0.22    0.04      187     146
 1997 294    91    89   25.4      5  3.626   1581   2618    879    402   4199   5869    501   175.5  0.150   1670    361  0.000  0.000  0.000  0.000  0.000  0.000  0.000    3.81  52.63   0.28      0   1670  229.4   0.36   0.50   94.7   0.90    0.91    0.91    0.63    0.31    0.22    0.04      192     150
 1997 295    92    90   25.6      5  3.629   1588   2651    935    402   4239   5987    501   186.6  0.156   1748    368  0.000  0.000  0.000  0.000  0.000  0.000  0.000    3.78  53.47   0.29      0   1748  228.6   0.36   0.50   94.7   0.90    0.91    0.91    0.63    0.31    0.22    0.04      196     154
 1997 296    93    91   25.8      5  3.632   1597   2691    991    403   4288   6114    517   191.8  0.162   1826    374  0.000  0.000  0.000  0.000  0.000  0.000  0.000    3.76  54.29   0.30      0   1826  227.4   0.37   0.50   94.7   0.90    0.91    0.91    0.64    0.31    0.22    0.04      202     157
 1997 297    94    92   26.0      5  3.635   1604   2724   1047    403   4328   6229    531   197.0  0.168   1901    381  0.000  0.000  0.000  0.000  0.000  0.000  0.000    3.74  55.07   0.31      0   1901  226.5   0.37   0.50   94.7   0.90    0.91    0.91    0.64    0.31    0.22    0.04      207     161
 1997 298    95    93   26.1      5  3.634   1610   2754   1104    403   4364   6342    546   202.1  0.174   1978    387  0.000  0.000  0.000  0.000  0.000  0.000  0.000    3.71  55.82   0.31      0   1978  225.7   0.37   0.50   94.7   0.90    0.91    0.91    0.64    0.31    0.22    0.04      212     165
 1997 299    96    94   26.3      5  3.636   1618   2789   1161    403   4407   6460    559   207.8  0.180   2053    393  0.000  0.000  0.000  0.000  0.000  0.000  0.000    3.69  56.54   0.32      0   2053  224.8   0.37   0.50   94.7   0.90    0.91    0.91    0.64    0.31    0.22    0.04      217     169
 1997 300    97    95   26.5      5  3.633   1622   2817   1222    402   4439   6572    574   212.8  0.186   2133    400  0.000  0.000  0.000  0.000  0.000  0.000  0.000    3.67  57.29   0.32      0   2133  224.0   0.37   0.50   94.7   0.90    0.91    0.91    0.64    0.31    0.22    0.04      222     172
 1997 301    98    96   26.7      5  3.631   1626   2847   1283    402   4473   6685    590   217.6  0.192   2212    407  0.000  0.000  0.000  0.000  0.000  0.000  0.000    3.64  57.99   0.33      0   2212  223.3   0.38   0.50   94.7   0.90    0.91    0.91    0.64    0.31    0.22    0.04      227     176
 1997 302    99    97   26.9      5  3.628   1631   2875   1344    401   4506   6797    601   223.8  0.198   2291    414  0.000  0.000  0.000  0.000  0.000  0.000  0.000    3.62  58.66   0.34      0   2291  222.5   0.38   0.50   94.7   0.90    0.91    0.91    0.64    0.31    0.22    0.04      232     180
 1997 303   100    98   27.1      5  3.624   1634   2903   1406    400   4537   6908    610   230.4  0.204   2371    420  0.000  0.000  0.000  0.000  0.000  0.000  0.000    3.60  59.31   0.34      0   2371  221.8   0.38   0.50   94.7   0.90    0.91    0.91    0.64    0.31    0.22    0.04      237     184
 1997 304   101    99   27.3      5  3.614   1632   2914   1469    398   4546   6996    622   236.2  0.210   2450    427  0.000  0.000  0.000  0.000  0.000  0.000  0.000    3.57  59.98   0.35      0   2450  221.5   0.38   0.50   94.7   0.90    0.91    0.91    0.63    0.31    0.22    0.04      242     188
 1997 305   102   100   27.4      5  3.609   1635   2940   1534    397   4575   7106    632   242.6  0.216   2531    433  0.000  0.000  0.000  0.000  0.000  0.000  0.000    3.54  60.59   0.36      0   2531  220.8   0.38   0.50   94.7   0.90    0.91    0.91    0.63    0.31    0.22    0.04      247     191
 1997 306   103   101   27.6      5  3.599   1632   2951   1594    395   4583   7189    642   248.5  0.222   2607    440  0.000  0.000  0.000  0.000  0.000  0.000  0.000    3.51  61.16   0.36      0   2607  220.5   0.39   0.50   94.7   0.90    0.90    0.90    0.63    0.31    0.22    0.04      251     195
 1997 307   104   102   27.8      5  3.593   1635   2978   1657    394   4613   7298    666   248.9  0.227   2685    445  0.000  0.000  0.000  0.000  0.000  0.000  0.000    3.49  61.73   0.37      0   2685  219.8   0.39   0.50   94.7   0.90    0.89    0.90    0.63    0.31    0.22    0.04      257     199
 1997 308   105   103   27.8      5  3.588   1638   3005   1718    392   4643   7403    677   253.8  0.232   2760    451  0.000  0.000  0.000  0.000  0.000  0.000  0.000    3.47  62.26   0.37      0   2760  219.1   0.39   0.50   94.7   0.90    0.88    0.90    0.63    0.31    0.22    0.04      261     203
 1997 309   106   104   27.8      5  3.573   1636   3020   1779    398   4656   7490    688   258.7  0.238   2834    456  0.000  0.292  0.000  0.000  0.000  0.000  0.000    3.45  62.78   0.38      0   2834  218.3   0.39   0.50   94.7   0.90    0.88    0.90    0.64    0.32    0.22    0.04      266     208
 1997 310   107   105   27.8      5  3.562   1628   3004   1809    393   4632   7493    698   259.0  0.241   2861    462  0.670  0.780  0.000  0.000  0.000  0.000  0.000    3.43  63.23   0.38      0   2861  218.8   0.39   0.50   90.9   0.90    0.86    0.89    0.63    0.31    0.22    0.04      269     217
 1997 311   108   106   27.8      5  3.553   1620   2990   1831    387   4610   7491    709   258.3  0.244   2880    466  0.717  0.811  0.000  0.000  0.000  0.000  0.000    3.42  63.57   0.38      0   2880  219.3   0.39   0.50   87.3   0.90    0.84    0.88    0.62    0.31    0.22    0.04      271     226
 1997 312   109   107   27.8      5  3.547   1614   2976   1848    381   4590   7485    719   256.8  0.247   2895    472  0.727  0.818  0.000  0.000  0.000  0.000  0.000    3.41  63.83   0.39      0   2895  219.7   0.39   0.50   83.8   0.90    0.83    0.86    0.61    0.31    0.22    0.04      273     235
 1997 313   110   108   27.8      5  3.543   1609   2964   1858    376   4573   7475    729   254.7  0.249   2903    476  0.783  0.856  0.000  0.000  0.000  0.000  0.000    3.41  64.00   0.39      0   2903  220.2   0.39   0.50   80.4   0.90    0.81    0.85    0.60    0.30    0.21    0.04      274     244
 1997 314   111   109   27.8      5  3.493   1583   2947   1863    370   4531   7438    739   252.1  0.250   2907    482  0.823  0.882  0.000  0.000  0.000  0.000  0.000    3.41  64.09   0.39      0   2907  220.6   0.39   0.50   77.2   0.90    0.80    0.84    0.59    0.30    0.21    0.04      301     252
 1997 315   112   110   27.8      5  3.442   1557   2932   1867    365   4489   7398    747   249.7  0.252   2909    481  0.840  0.893  0.000  0.000  0.000  0.000  0.000    3.41  64.16   0.39      0   2909  221.0   0.39   0.50   74.1   0.90    0.78    0.82    0.59    0.30    0.21    0.04      328     261
 1997 316   113   111   27.8      5  3.392   1531   2917   1867    360   4448   7357    756   246.9  0.254   2909    480  0.854  0.903  0.000  0.000  0.000  0.000  0.000    3.42  64.18   0.40      0   2909  221.5   0.39   0.50   71.1   0.90    0.77    0.81    0.58    0.30    0.21    0.04      356     269
 1997 317   114   112   27.8      5  3.338   1505   2902   1867    355   4406   7314    756   246.9  0.255   2908    480  0.864  0.909  0.000  0.000  0.000  0.000  0.000    3.43  64.19   0.40      0   2908  221.9   0.39   0.50   68.3   0.90    0.75    0.80    0.57    0.29    0.21    0.04      385     276
 1997 318   115   113   27.8      5  3.283   1477   2887   1867    350   4364   7272    762   244.9  0.257   2907    479  0.879  0.919  0.000  0.000  0.000  0.000  0.000    3.43  64.21   0.40      0   2907  222.3   0.39   0.50   65.6   0.90    0.74    0.78    0.56    0.29    0.21    0.04      415     284
 1997 319   116   114   27.8      5  3.228   1450   2872   1867    345   4322   7229    767   243.4  0.258   2906    476  0.887  0.925  0.000  0.000  0.000  0.000  0.000    3.44  64.22   0.40      0   2906  222.7   0.39   0.50   62.9   0.90    0.72    0.77    0.55    0.29    0.20    0.04      445     292
 1997 320   117   115   27.8      5  3.173   1423   2858   1867    340   4281   7187    769   242.8  0.260   2906    472  0.885  0.924  0.000  0.000  0.000  0.000  0.000    3.44  64.24   0.40      0   2906  223.0   0.39   0.50   60.4   0.90    0.71    0.76    0.54    0.28    0.20    0.04      475     299
 1997 321   118   116   27.8      5  3.118   1396   2845   1867    336   4240   7146    769   242.8  0.261   2905    466  0.890  0.927  0.000  0.000  0.000  0.000  0.000    3.45  64.25   0.41      0   2905  223.4   0.39   0.50   58.0   0.90    0.70    0.75    0.54    0.28    0.20    0.04      505     306
 1997 322   119   117   27.8      5  3.064   1369   2831   1867    331   4200   7105    769   242.8  0.263   2905    466  0.905  0.937  0.000  0.000  0.000  0.000  0.000    3.46  64.27   0.41      0   2905  223.8   0.39   0.50   55.7   0.90    0.68    0.73    0.53    0.28    0.20    0.04      535     313
 1997 323   120   118   27.8      5  3.009   1343   2818   1867    326   4160   7064    769   242.8  0.264   2904    466  0.898  0.932  0.000  0.000  0.000  0.000  0.000    3.46  64.28   0.41      0   2904  224.1   0.39   0.50   53.5   0.90    0.67    0.72    0.52    0.28    0.20    0.04      564     320
 1997 324   121   119   27.8      8  2.956   1317   2805   1867    321   4121   7025    769   242.8  0.266   2904    466  0.921  0.947  0.000  0.000  0.000  0.000  0.000    3.47  64.29   0.41      0   2904  224.5   0.39   0.50   51.3   0.90    0.66    0.71    0.51    0.27    0.19    0.04      593     327
