*GROWTH ASPECTS OUTPUT FILE

*DSSAT Cropping System Model Ver. 4.5.1.023 -Stub         NOV 06, 2014; 23:59:41
                                                                                
*RUN   1        : 97 DATE1 CHINESE          CRGRO045 GHNY9701    1              
 MODEL          : CRGRO045 - Peanut                                             
 EXPERIMENT     : GHNY9701 PN 1997 VARIETY X PLANTING DATE EXPERIMENT           
 DATA PATH      :                                                               
 TREATMENT  1   : 97 DATE1 CHINESE          CRGRO045                            
  
!                                                                                                                                                                                                                                                    Root Dens. (cm/cm3) by soil depth (cm):
!                                                                                                                                                                                                                                                    0-5    5-15   15-30   30-45   45-60   60-90
@YEAR DOY   DAS   DAP   L#SD   GSTD   LAID   LWAD   SWAD   GWAD   RWAD   VWAD   CWAD   G#AD    GWGD   HIAD   PWAD   P#AD   WSPD   WSGD   NSTD  PST1A  PST2A   KSTD   EWSD    LN%D   SH%D   HIPD   PWDD   PWTD   SLAD   CHTD   CWID   NWAD   RDPD    RL1D    RL2D    RL3D    RL4D    RL5D    RL6D    SNW0C   SNW1C
 1997 149     1     0    0.0      0  0.000      0      0      0      0      0      0      0     0.0  0.000      0      0  0.000  0.000  0.000  0.000  0.000  0.000  0.000    0.00   0.00   0.00      0      0    0.0   0.00   0.00    0.0   0.00    0.00    0.00    0.00    0.00    0.00    0.00        0       0
 1997 150     2     1    0.0      0  0.000      0      0      0      0      0      0      0     0.0  0.000      0      0  0.000  0.000  0.000  0.000  0.000  0.000  0.000    0.00   0.00   0.00      0      0    0.0   0.00   0.00    0.0   0.00    0.00    0.00    0.00    0.00    0.00    0.00        0       0
 1997 151     3     2    0.0      0  0.000      0      0      0      0      0      0      0     0.0  0.000      0      0  0.000  0.000  0.000  0.000  0.000  0.000  0.000    0.00   0.00   0.00      0      0    0.0   0.00   0.00    0.0   0.00    0.00    0.00    0.00    0.00    0.00    0.00        0       0
 1997 152     4     3    0.0      0  0.000      0      0      0      0      0      0      0     0.0  0.000      0      0  0.000  0.000  0.000  0.000  0.000  0.000  0.000    0.00   0.00   0.00      0      0    0.0   0.00   0.00    0.0   0.00    0.00    0.00    0.00    0.00    0.00    0.00        0       0
 1997 153     5     4    0.0      0  0.000      0      0      0      0      0      0      0     0.0  0.000      0      0  0.000  0.000  0.000  0.000  0.000  0.000  0.000    0.00   0.00   0.00      0      0    0.0   0.00   0.00    0.0   0.00    0.00    0.00    0.00    0.00    0.00    0.00        0       0
 1997 154     6     5    0.0      0  0.000      0      0      0      0      0      0      0     0.0  0.000      0      0  0.000  0.000  0.000  0.000  0.000  0.000  0.000    0.00   0.00   0.00      0      0    0.0   0.00   0.00    0.0   0.00    0.00    0.00    0.00    0.00    0.00    0.00        0       0
 1997 155     7     6    0.0      0  0.000      0      0      0      0      0      0      0     0.0  0.000      0      0  0.000  0.000  0.000  0.000  0.000  0.000  0.000    0.00   0.00   0.00      0      0    0.0   0.00   0.00    0.0   0.00    0.00    0.00    0.00    0.00    0.00    0.00        0       0
 1997 156     8     7    0.0      0  0.013      9      2      0      9     11     11      0     0.0  0.000      0      0  0.000  0.000  0.000  0.000  0.000  0.000  0.000    5.36   0.00   0.00      0      0  145.6   0.02   0.03    1.4   0.26    0.03    0.03    0.02    0.00    0.00    0.00        0       0
 1997 157     9     8    0.3      0  0.018     10      2      0     10     13     13      0     0.0  0.000      0      0  0.000  0.000  0.000  0.000  0.000  0.000  0.000    5.32   0.00   0.00      0      0  172.3   0.02   0.03    1.5   0.29    0.03    0.03    0.02    0.00    0.00    0.00        0       0
 1997 158    10     9    0.6      0  0.023     12      2      0     10     14     14      0     0.0  0.000      0      0  0.000  0.000  0.000  0.000  0.000  0.000  0.000    5.28   0.00   0.00      0      0  195.9   0.03   0.04    1.5   0.32    0.03    0.03    0.02    0.00    0.00    0.00        0       0
 1997 159    11    10    0.9      0  0.029     13      3      0     11     16     16      0     0.0  0.000      0      0  0.000  0.000  0.000  0.000  0.000  0.000  0.000    5.25   0.00   0.00      0      0  214.3   0.03   0.04    1.6   0.34    0.03    0.03    0.02    0.00    0.00    0.00        0       0
 1997 160    12    11    1.4      0  0.034     15      3      0     12     18     18      0     0.0  0.000      0      0  0.000  0.203  0.150  0.000  0.000  0.000  0.000    5.07   0.00   0.00      0      0  220.3   0.04   0.05    1.9   0.37    0.04    0.04    0.02    0.00    0.00    0.00        0       1
 1997 161    13    12    2.0      0  0.043     18      3      0     13     21     21      0     0.0  0.000      0      0  0.000  0.000  0.047  0.000  0.000  0.000  0.000    4.92   0.00   0.00      0      0  239.6   0.04   0.06    2.3   0.40    0.04    0.04    0.03    0.00    0.00    0.00        0       1
 1997 162    14    13    2.5      0  0.052     20      3      0     14     24     24      0     0.0  0.000      0      0  0.000  0.000  0.000  0.000  0.000  0.000  0.000    4.94   0.00   0.00      0      0  259.9   0.05   0.08    2.4   0.43    0.04    0.04    0.03    0.00    0.00    0.00        0       1
 1997 163    15    14    2.8      0  0.055     22      4      0     16     26     26      0     0.0  0.000      0      0  0.053  0.369  0.159  0.000  0.000  0.000  0.000    4.81   0.00   0.00      0      0  252.3   0.06   0.08    2.8   0.45    0.05    0.05    0.03    0.00    0.00    0.00        0       1
 1997 164    16    15    3.3      0  0.064     24      5      0     18     29     29      0     0.0  0.000      0      0  0.000  0.000  0.000  0.000  0.000  0.000  0.000    4.80   0.00   0.00      0      0  265.2   0.07   0.09    3.1   0.48    0.05    0.05    0.03    0.01    0.00    0.00        0       1
 1997 165    17    16    3.7      0  0.073     27      6      0     20     33     33      0     0.0  0.000      0      0  0.000  0.000  0.008  0.000  0.000  0.000  0.000    4.69   0.00   0.00      0      0  271.4   0.07   0.10    3.7   0.51    0.06    0.06    0.04    0.01    0.00    0.00        0       1
 1997 166    18    17    4.1      0  0.082     29      8      0     22     37     37      0     0.0  0.000      0      0  0.000  0.000  0.000  0.000  0.000  0.000  0.000    4.64   0.00   0.00      0      0  278.7   0.08   0.12    4.5   0.53    0.06    0.06    0.04    0.01    0.00    0.00        0       1
 1997 167    19    18    4.5      0  0.090     32     11      0     25     42     42      0     0.0  0.000      0      0  0.000  0.000  0.000  0.000  0.000  0.000  0.000    4.62   0.00   0.00      0      0  283.8   0.09   0.13    5.3   0.56    0.07    0.07    0.04    0.01    0.00    0.00        1       2
 1997 168    20    19    4.8      0  0.097     34     14      0     28     48     48      0     0.0  0.000      0      0  0.000  0.000  0.000  0.000  0.000  0.000  0.000    4.61   0.00   0.00      0      0  284.9   0.09   0.14    6.0   0.59    0.07    0.07    0.05    0.01    0.00    0.00        1       2
 1997 169    21    20    5.2      0  0.111     39     17      0     30     55     55      0     0.0  0.000      0      0  0.000  0.000  0.000  0.000  0.000  0.000  0.000    4.53   0.00   0.00      0      0  287.7   0.10   0.15    7.3   0.61    0.08    0.08    0.05    0.02    0.01    0.00        1       2
 1997 170    22    21    5.5      0  0.127     43     20      0     32     63     63      0     0.0  0.000      0      0  0.000  0.000  0.000  0.000  0.000  0.000  0.000    4.54   0.00   0.00      0      0  291.7   0.11   0.16    8.1   0.64    0.08    0.08    0.06    0.02    0.01    0.00        1       2
 1997 171    23    22    5.8      0  0.144     49     23      0     35     73     73      0     0.0  0.000      0      0  0.000  0.000  0.000  0.000  0.000  0.000  0.000    4.51   0.00   0.00      0      0  292.2   0.11   0.17    9.8   0.67    0.09    0.09    0.06    0.02    0.01    0.00        1       3
 1997 172    24    23    6.1      0  0.165     56     28      0     37     84     84      0     0.0  0.000      0      0  0.000  0.000  0.000  0.000  0.000  0.000  0.000    4.51   0.00   0.00      0      0  296.2   0.12   0.18   11.3   0.70    0.09    0.09    0.06    0.02    0.01    0.00        1       3
 1997 173    25    24    6.4      0  0.186     61     32      0     39     92     92      0     0.0  0.000      0      0  0.000  0.000  0.000  0.000  0.000  0.000  0.000    4.55   0.00   0.00      0      0  307.8   0.12   0.19   11.5   0.72    0.10    0.10    0.07    0.02    0.01    0.00        1       3
 1997 174    26    25    6.7      1  0.205     66     36      0     41    102    102      0     0.0  0.000      0      0  0.000  0.000  0.000  0.000  0.000  0.000  0.000    4.60   0.00   0.00      0      0  308.6   0.13   0.20   11.7   0.75    0.10    0.10    0.07    0.02    0.01    0.00        1       4
 1997 175    27    26    7.0      1  0.229     74     42      0     43    115    115      0     0.0  0.000      0      0  0.000  0.000  0.000  0.000  0.000  0.000  0.000    4.62   0.00   0.00      0      0  311.6   0.13   0.21   12.6   0.77    0.11    0.11    0.07    0.03    0.01    0.00        1       4
 1997 176    28    27    7.4      1  0.260     82     49      0     46    132    132      0     0.0  0.000      0      0  0.000  0.000  0.000  0.000  0.000  0.000  0.000    4.57   0.00   0.00      0      0  315.7   0.14   0.22   15.1   0.80    0.11    0.11    0.08    0.03    0.02    0.00        2       4
 1997 177    29    28    7.7      1  0.290     93     58      0     51    151    151      0     0.0  0.000      0      0  0.000  0.075  0.000  0.000  0.000  0.000  0.000    4.51   0.00   0.00      0      0  312.4   0.14   0.24   18.2   0.83    0.12    0.12    0.08    0.03    0.02    0.00        2       5
 1997 178    30    29    8.0      1  0.328    105     68      0     55    173    173      0     0.0  0.000      0      0  0.000  0.000  0.000  0.000  0.000  0.000  0.000    4.51   0.00   0.00      0      0  313.1   0.15   0.25   20.9   0.86    0.13    0.13    0.09    0.04    0.02    0.00        2       5
 1997 179    31    30    8.3      1  0.366    116     78      0     59    193    193      0     0.0  0.000      0      0  0.000  0.000  0.000  0.000  0.000  0.000  0.000    4.56   0.00   0.00      0      0  316.4   0.15   0.26   21.3   0.89    0.14    0.14    0.10    0.04    0.02    0.00        2       6
 1997 180    32    31    8.6      1  0.401    129     89      0     66    218    218      0     0.0  0.000      0      0  0.000  0.087  0.000  0.000  0.000  0.000  0.000    4.54   0.00   0.00      0      0  310.8   0.16   0.27   25.5   0.90    0.15    0.15    0.11    0.04    0.03    0.00        3       6
 1997 181    33    32    8.9      1  0.446    143    102      0     70    246    246      0     0.0  0.000      0      0  0.000  0.000  0.000  0.000  0.000  0.000  0.000    4.60   0.00   0.00      0      0  311.2   0.16   0.29   26.1   0.90    0.16    0.16    0.11    0.05    0.03    0.00        3       7
 1997 182    34    33    9.3      2  0.498    160    118      0     76    278    278      0     0.0  0.000      0      0  0.000  0.000  0.000  0.000  0.000  0.000  0.000    4.58   0.00   0.00      0      0  311.2   0.17   0.30   29.1   0.90    0.18    0.18    0.12    0.05    0.03    0.00        3       8
 1997 183    35    34    9.6      2  0.544    172    130      0     80    302    302      0     0.0  0.000      0      0  0.000  0.000  0.000  0.000  0.000  0.000  0.000    4.60   0.00   0.00      0      0  315.5   0.18   0.32   29.1   0.90    0.18    0.18    0.13    0.05    0.03    0.00        4       8
 1997 184    36    35    9.9      2  0.587    186    144      0     85    330    330      0     0.0  0.000      0      0  0.000  0.000  0.000  0.000  0.000  0.000  0.000    4.63   0.00   0.00      0      0  315.0   0.19   0.33   29.1   0.90    0.19    0.19    0.13    0.06    0.04    0.01        4       9
 1997 185    37    36   10.2      2  0.636    201    159      0     89    360    360      0     0.0  0.000      0      0  0.000  0.000  0.000  0.000  0.000  0.000  0.000    4.65   0.00   0.00      0      0  315.8   0.19   0.35   29.1   0.90    0.20    0.20    0.14    0.06    0.04    0.01        5      10
 1997 186    38    37   10.5      3  0.698    223    180      0     96    403    404      0     0.0  0.000      1      0  0.000  0.000  0.000  0.000  0.000  0.000  0.000    4.57   0.00   0.00      0      1  313.7   0.20   0.36   34.9   0.90    0.22    0.22    0.15    0.07    0.04    0.01        5      11
 1997 187    39    38   10.9      3  0.761    244    203      0    104    447    449      0     0.0  0.000      1      1  0.000  0.000  0.000  0.000  0.000  0.000  0.000    4.56   0.00   0.00      0      1  311.4   0.21   0.38   39.2   0.90    0.23    0.23    0.16    0.07    0.05    0.01        6      12
 1997 188    40    39   11.2      3  0.825    268    228      0    111    495    498      0     0.0  0.000      3      4  0.000  0.000  0.000  0.000  0.000  0.000  0.000    4.56   0.00   0.01      0      3  308.3   0.22   0.39   42.1   0.90    0.25    0.25    0.17    0.08    0.05    0.01        7      12
 1997 189    41    40   11.5      3  0.892    294    257      0    121    551    556      0     0.0  0.000      5      8  0.000  0.014  0.000  0.000  0.000  0.000  0.000    4.53   0.00   0.01      0      5  303.2   0.22   0.41   49.1   0.90    0.27    0.27    0.19    0.09    0.06    0.01        7      13
 1997 190    42    41   11.8      3  0.965    322    288      0    130    610    618      0     0.0  0.000      8     12  0.000  0.000  0.000  0.000  0.000  0.000  0.000    4.56   0.00   0.01      0      8  299.8   0.23   0.43   50.2   0.90    0.29    0.29    0.20    0.09    0.06    0.01        8      15
 1997 191    43    42   12.2      3  1.032    344    313      0    137    658    670      0     0.0  0.000     12     17  0.000  0.000  0.000  0.000  0.000  0.000  0.000    4.57   0.00   0.02      0     12  299.6   0.24   0.44   50.2   0.90    0.31    0.30    0.21    0.10    0.07    0.01        9      16
 1997 192    44    43   12.5      3  1.100    368    341      0    144    709    726      0     0.0  0.000     17     23  0.000  0.000  0.000  0.000  0.000  0.000  0.000    4.58   0.00   0.02      0     17  299.1   0.25   0.46   50.2   0.90    0.32    0.32    0.22    0.10    0.07    0.01       10      17
 1997 193    45    44   12.8      5  1.173    398    377      0    154    775    799      0     0.0  0.000     24     29  0.000  0.000  0.000  0.000  0.000  0.000  0.000    4.57   0.00   0.03      0     24  294.7   0.25   0.47   54.9   0.90    0.34    0.34    0.24    0.11    0.07    0.01       11      18
 1997 194    46    45   13.1      5  1.252    430    418      0    165    848    879      2     0.0  0.000     31     36  0.000  0.000  0.000  0.000  0.000  0.000  0.000    4.55   0.00   0.04      0     31  290.9   0.26   0.49   61.4   0.90    0.36    0.36    0.25    0.12    0.08    0.01       14      20
 1997 195    47    46   13.5      5  1.335    462    458      0    175    920    960      7     3.0  0.000     40     43  0.000  0.000  0.000  0.000  0.000  0.000  0.000    4.56   0.54   0.04      0     40  289.0   0.27   0.50   62.1   0.90    0.39    0.39    0.27    0.13    0.09    0.02       16      21
 1997 196    48    47   13.8      5  1.393    483    487      1    182    970   1021     13     8.4  0.001     51     50  0.000  0.000  0.000  0.000  0.000  0.000  0.000    4.56   2.11   0.05      0     51  288.7   0.28   0.50   62.1   0.90    0.40    0.40    0.28    0.13    0.09    0.02       19      23
 1997 197    49    48   14.1      5  1.434    498    509      3    186   1006   1072     20    13.7  0.002     65     57  0.000  0.000  0.000  0.000  0.000  0.000  0.000    4.53   4.11   0.06      0     65  287.9   0.28   0.50   62.1   0.90    0.41    0.41    0.29    0.14    0.09    0.02       21      24
 1997 198    50    49   14.4      5  1.506    527    548      5    195   1076   1156     28    17.7  0.004     81     65  0.000  0.000  0.000  0.000  0.000  0.000  0.000    4.53   6.21   0.07      0     81  285.5   0.29   0.50   62.1   0.90    0.43    0.43    0.30    0.14    0.10    0.02       22      26
 1997 199    51    50   14.7      5  1.574    557    589      8    204   1146   1246     37    22.6  0.007     99     74  0.000  0.000  0.000  0.000  0.000  0.000  0.000    4.52   8.53   0.08      0     99  282.5   0.30   0.50   63.5   0.90    0.45    0.45    0.31    0.15    0.10    0.02       24      28
 1997 200    52    51   15.0      5  1.645    588    633     13    214   1222   1341     47    27.3  0.010    120     85  0.000  0.000  0.000  0.000  0.000  0.000  0.000    4.49  10.77   0.09      0    120  279.5   0.30   0.50   67.4   0.90    0.47    0.47    0.33    0.16    0.11    0.02       26      30
 1997 201    53    52   15.3      5  1.697    611    667     19    220   1278   1421     59    31.6  0.013    143     94  0.000  0.000  0.000  0.000  0.000  0.000  0.000    4.48  13.02   0.10      0    143  277.7   0.31   0.50   67.4   0.90    0.49    0.49    0.34    0.16    0.11    0.02       28      32
 1997 202    54    53   15.6      5  1.728    622    685     26    223   1307   1475     70    36.7  0.017    168    101  0.000  0.000  0.000  0.000  0.000  0.000  0.000    4.44  15.26   0.11      0    168  277.7   0.32   0.50   67.4   0.90    0.49    0.49    0.34    0.16    0.11    0.02       30      34
 1997 203    55    54   15.9      5  1.793    655    734     34    233   1389   1585     82    41.6  0.021    195    113  0.000  0.000  0.000  0.000  0.000  0.000  0.000    4.40  17.37   0.12      0    195  273.7   0.32   0.50   73.9   0.90    0.51    0.51    0.36    0.17    0.12    0.02       31      36
 1997 204    56    55   16.2      5  1.856    683    778     43    241   1461   1686     93    46.4  0.026    224    126  0.000  0.000  0.000  0.000  0.000  0.000  0.000    4.39  19.29   0.13      0    224  271.6   0.33   0.50   73.9   0.90    0.53    0.53    0.37    0.18    0.12    0.02       33      38
 1997 205    57    56   16.5      5  1.913    709    820     54    249   1529   1785    106    51.1  0.030    256    140  0.000  0.000  0.000  0.000  0.000  0.000  0.000    4.38  21.08   0.14      0    256  269.7   0.34   0.50   73.9   0.90    0.55    0.55    0.38    0.18    0.13    0.02       36      40
 1997 206    58    57   16.8      5  1.971    740    869     67    257   1608   1900    120    55.4  0.035    291    151  0.000  0.000  0.000  0.000  0.000  0.000  0.000    4.37  22.85   0.15      0    291  266.3   0.34   0.50   73.9   0.90    0.57    0.57    0.40    0.19    0.13    0.02       38      42
 1997 207    59    58   17.1      5  2.031    770    919     80    266   1689   2016    138    58.2  0.040    327    160  0.000  0.000  0.000  0.000  0.000  0.000  0.000    4.36  24.55   0.16      0    327  263.8   0.35   0.50   73.9   0.90    0.59    0.59    0.41    0.20    0.14    0.03       40      45
 1997 208    60    59   17.4      5  2.087    797    965     96    274   1762   2128    153    62.7  0.045    366    175  0.000  0.000  0.000  0.000  0.000  0.000  0.000    4.35  26.20   0.17      0    366  261.8   0.36   0.50   73.9   0.90    0.60    0.60    0.42    0.20    0.14    0.03       43      47
 1997 209    61    60   17.7      5  2.141    825   1014    113    281   1839   2247    165    68.6  0.050    408    189  0.000  0.000  0.000  0.000  0.000  0.000  0.000    4.33  27.77   0.18      0    408  259.4   0.36   0.50   74.6   0.90    0.62    0.62    0.43    0.21    0.15    0.03       45      50
 1997 210    62    61   18.0      5  2.175    840   1043    133    285   1883   2337    185    71.8  0.057    453    203  0.000  0.000  0.000  0.000  0.000  0.000  0.000    4.30  29.23   0.19      0    453  258.9   0.37   0.50   74.6   0.90    0.63    0.63    0.44    0.21    0.15    0.03       48      52
 1997 211    63    62   18.3      5  2.190    847   1059    155    286   1906   2409    205    75.3  0.064    503    218  0.000  0.000  0.000  0.000  0.000  0.000  0.000    4.25  30.72   0.21      0    503  258.7   0.37   0.50   74.6   0.90    0.63    0.63    0.44    0.21    0.15    0.03       51      55
 1997 212    64    63   18.6      5  2.193    848   1067    180    285   1915   2467    227    79.0  0.073    552    234  0.000  0.000  0.000  0.000  0.000  0.000  0.000    4.21  32.57   0.22      0    552  258.6   0.38   0.50   74.6   0.90    0.63    0.63    0.44    0.21    0.15    0.03       55      57
 1997 213    65    64   18.9      5  2.202    852   1081    208    285   1933   2543    247    84.2  0.082    610    249  0.000  0.000  0.000  0.000  0.000  0.000  0.000    4.18  34.02   0.24      0    610  258.3   0.38   0.50   74.6   0.90    0.63    0.63    0.44    0.21    0.15    0.03       58      60
 1997 214    66    65   19.1      5  2.234    871   1119    236    290   1991   2660    261    90.7  0.089    669    266  0.000  0.000  0.000  0.000  0.000  0.000  0.000    4.17  35.31   0.25      0    669  256.3   0.39   0.50   74.6   0.90    0.64    0.64    0.45    0.22    0.15    0.03       61      63
 1997 215    67    66   19.4      5  2.263    888   1155    265    294   2043   2770    285    93.0  0.096    727    279  0.000  0.000  0.000  0.000  0.000  0.000  0.000    4.15  36.49   0.26      0    727  254.7   0.39   0.50   74.6   0.90    0.65    0.65    0.46    0.22    0.15    0.03       64      65
 1997 216    68    67   19.6      5  2.268    891   1166    299    294   2057   2847    308    97.2  0.105    790    291  0.000  0.000  0.000  0.000  0.000  0.000  0.000    4.12  37.85   0.28      0    790  254.6   0.40   0.50   74.6   0.90    0.65    0.65    0.46    0.22    0.15    0.03       67      68
 1997 217    69    68   19.9      5  2.275    896   1182    336    294   2077   2934    330   101.6  0.114    857    301  0.000  0.000  0.000  0.000  0.000  0.000  0.000    4.09  39.17   0.29      0    857  254.0   0.40   0.50   74.6   0.90    0.66    0.66    0.46    0.22    0.15    0.03       71      71
 1997 218    70    69   20.1      5  2.275    896   1189    376    293   2085   2983    355   105.8  0.126    898    313  0.000  0.000  0.000  0.000  0.000  0.000  0.000    4.04  41.85   0.30      0    898  254.0   0.41   0.50   74.6   0.90    0.65    0.65    0.46    0.22    0.15    0.03       74      73
 1997 219    71    70   20.3      5  2.278    898   1202    418    293   2100   3061    381   109.6  0.137    961    329  0.000  0.000  0.000  0.000  0.000  0.000  0.000    4.01  43.51   0.31      0    961  253.6   0.41   0.50   74.6   0.90    0.66    0.65    0.46    0.22    0.16    0.03       77      76
 1997 220    72    71   20.5      5  2.288    908   1227    463    294   2135   3172    407   113.8  0.146   1037    344  0.000  0.000  0.000  0.000  0.000  0.000  0.000    3.99  44.67   0.33      0   1037  252.0   0.42   0.50   74.6   0.90    0.66    0.66    0.46    0.22    0.16    0.03       81      79
 1997 221    73    72   20.8      5  2.290    911   1241    510    294   2152   3255    434   117.5  0.157   1103    356  0.000  0.000  0.000  0.000  0.000  0.000  0.000    3.95  46.25   0.34      0   1103  251.5   0.42   0.50   74.6   0.90    0.66    0.66    0.46    0.22    0.16    0.03       84      81
 1997 222    74    73   21.0      5  2.295    916   1260    562    295   2175   3360    457   122.9  0.167   1185    369  0.000  0.000  0.000  0.000  0.000  0.000  0.000    3.92  47.40   0.35      0   1185  250.6   0.42   0.50   74.6   0.90    0.66    0.66    0.46    0.22    0.16    0.03       87      84
 1997 223    75    74   21.2      5  2.298    921   1278    615    295   2199   3466    477   129.1  0.177   1267    379  0.000  0.000  0.000  0.000  0.000  0.000  0.000    3.89  48.55   0.37      0   1267  249.5   0.43   0.50   74.6   0.90    0.66    0.66    0.46    0.23    0.16    0.03       90      87
 1997 224    76    75   21.4      5  2.299    924   1295    672    295   2219   3557    494   136.1  0.189   1338    391  0.000  0.000  0.000  0.000  0.000  0.000  0.000    3.86  50.20   0.38      0   1338  248.7   0.43   0.50   74.6   0.90    0.66    0.66    0.46    0.23    0.16    0.03       93      90
 1997 225    77    76   21.6      5  2.301    928   1311    730    295   2239   3649    514   142.0  0.200   1410    405  0.000  0.000  0.000  0.000  0.000  0.000  0.000    3.83  51.74   0.39      0   1410  248.0   0.43   0.50   74.6   0.90    0.66    0.66    0.46    0.23    0.16    0.03       97      93
 1997 226    78    77   21.8      5  2.302    931   1327    789    294   2258   3736    540   146.1  0.211   1478    417  0.000  0.000  0.000  0.000  0.000  0.000  0.000    3.80  53.35   0.40      0   1478  247.3   0.44   0.50   74.6   0.90    0.66    0.66    0.46    0.23    0.16    0.03      100      96
 1997 227    79    78   21.9      5  2.286    930   1341    836    291   2271   3793    564   148.2  0.220   1522    432  0.000  0.000  0.000  0.000  0.000  0.000  0.000    3.72  54.90   0.40      0   1522  245.8   0.44   0.50   74.6   0.90    0.65    0.66    0.46    0.22    0.16    0.03      103      98
 1997 228    80    79   22.1      5  2.284    932   1357    897    291   2290   3884    585   153.5  0.231   1594    446  0.000  0.000  0.000  0.000  0.000  0.000  0.000    3.67  56.30   0.41      0   1594  245.0   0.44   0.50   74.6   0.90    0.65    0.66    0.46    0.22    0.16    0.03      106     101
 1997 229    81    80   22.2      5  2.268    931   1371    961    287   2302   3956    606   158.5  0.243   1654    458  0.000  0.000  0.000  0.000  0.000  0.000  0.000    3.60  58.07   0.42      0   1654  243.7   0.45   0.50   74.6   0.90    0.65    0.65    0.46    0.22    0.16    0.03      109     104
 1997 230    82    81   22.3      5  2.265    932   1385   1025    286   2317   4038    619   165.6  0.254   1721    470  0.000  0.000  0.000  0.000  0.000  0.000  0.000    3.55  59.58   0.43      0   1721  243.0   0.45   0.50   74.6   0.90    0.65    0.65    0.46    0.22    0.16    0.03      112     106
 1997 231    83    82   22.5      5  2.261    934   1400   1096    286   2335   4128    636   172.3  0.265   1793    479  0.000  0.000  0.000  0.000  0.000  0.000  0.000    3.50  61.11   0.43      0   1793  242.0   0.45   0.50   74.6   0.90    0.65    0.65    0.45    0.22    0.16    0.03      115     109
 1997 232    84    83   22.6      5  2.246    934   1418   1168    283   2352   4219    650   179.7  0.277   1867    472  0.000  0.000  0.000  0.000  0.000  0.000  0.000    3.43  62.57   0.44      0   1867  240.5   0.45   0.50   74.6   0.90    0.64    0.65    0.45    0.22    0.15    0.03      118     111
 1997 233    85    84   22.7      5  2.244    936   1433   1233    282   2369   4308    665   185.4  0.286   1939    480  0.000  0.000  0.000  0.000  0.000  0.000  0.000    3.39  63.58   0.45      0   1939  239.7   0.45   0.50   74.6   0.90    0.64    0.64    0.45    0.22    0.15    0.03      121     114
 1997 234    86    85   22.8      5  2.233    935   1445   1296    280   2381   4378    671   193.1  0.296   1998    469  0.000  0.000  0.000  0.000  0.000  0.000  0.000    3.34  64.85   0.46      0   1998  238.8   0.46   0.50   74.6   0.90    0.63    0.64    0.45    0.22    0.15    0.03      125     117
 1997 235    87    86   22.9      5  2.221    932   1450   1331    277   2382   4412    671   198.4  0.302   2031    464  0.000  0.000  0.000  0.000  0.000  0.000  0.000    3.28  65.52   0.46      0   2031  238.2   0.46   0.50   74.6   0.90    0.63    0.63    0.44    0.22    0.15    0.03      127     119
 1997 236    88    87   22.9      5  2.208    931   1463   1395    274   2394   4487    671   207.9  0.311   2092    461  0.000  0.000  0.000  0.000  0.000  0.000  0.000    3.22  66.64   0.47      0   2092  237.1   0.46   0.50   74.6   0.90    0.62    0.63    0.44    0.21    0.15    0.03      130     122
 1997 237    89    88   23.0      5  2.205    932   1475   1459    273   2407   4565    674   216.6  0.320   2157    460  0.000  0.000  0.000  0.000  0.000  0.000  0.000    3.19  67.65   0.47      0   2157  236.5   0.46   0.50   74.6   0.90    0.62    0.63    0.44    0.21    0.15    0.03      133     125
 1997 238    90    89   23.1      5  2.194    931   1487   1521    270   2418   4635    674   225.6  0.328   2217    456  0.000  0.000  0.000  0.000  0.000  0.000  0.000    3.14  68.60   0.48      0   2217  235.6   0.46   0.50   74.6   0.90    0.62    0.62    0.43    0.21    0.15    0.03      135     127
 1997 239    91    90   23.1      5  2.185    931   1499   1580    267   2430   4709    674   234.4  0.335   2279    456  0.000  0.000  0.000  0.000  0.000  0.000  0.000    3.09  69.32   0.48      0   2279  234.7   0.46   0.50   74.6   0.90    0.61    0.62    0.43    0.21    0.15    0.03      137     130
 1997 240    92    91   23.2      5  2.176    929   1504   1623    265   2433   4752    679   239.1  0.341   2319    449  0.000  0.000  0.000  0.000  0.000  0.000  0.000    3.05  69.98   0.49      0   2319  234.2   0.46   0.50   74.6   0.90    0.60    0.61    0.43    0.21    0.15    0.03      140     132
 1997 241    93    92   23.2      5  2.174    930   1516   1679    264   2447   4828    679   247.4  0.348   2381    449  0.000  0.000  0.000  0.000  0.000  0.000  0.000    3.02  70.51   0.49      0   2381  233.6   0.47   0.50   74.6   0.90    0.60    0.61    0.43    0.21    0.15    0.03      142     134
 1997 242    94    93   23.3      5  2.172    931   1527   1734    263   2459   4900    691   250.8  0.354   2442    454  0.000  0.000  0.000  0.000  0.000  0.000  0.000    3.00  71.03   0.50      0   2442  233.2   0.47   0.50   74.6   0.90    0.60    0.61    0.42    0.21    0.14    0.03      144     137
 1997 243    95    94   23.4      5  2.170    933   1539   1787    262   2471   4973    707   252.7  0.359   2501    453  0.000  0.000  0.000  0.000  0.000  0.000  0.000    2.99  71.46   0.50      0   2501  232.7   0.47   0.50   74.6   0.90    0.60    0.61    0.42    0.21    0.14    0.03      146     139
 1997 244    96    95   23.5      5  2.169    934   1550   1835    261   2484   5041    722   254.1  0.364   2556    458  0.000  0.000  0.000  0.000  0.000  0.000  0.000    2.97  71.80   0.51      0   2556  232.3   0.47   0.50   74.6   0.90    0.60    0.60    0.42    0.21    0.14    0.03      148     142
 1997 245    97    96   23.5      5  2.167    935   1561   1884    260   2495   5107    736   256.0  0.369   2611    457  0.000  0.000  0.000  0.000  0.000  0.000  0.000    2.95  72.14   0.51      0   2611  231.9   0.47   0.50   74.6   0.90    0.60    0.60    0.42    0.20    0.14    0.03      150     144
 1997 246    98    97   23.6      5  2.160    934   1569   1927    258   2503   5156    736   261.9  0.374   2653    462  0.000  0.000  0.000  0.000  0.000  0.000  0.000    2.91  72.63   0.51      0   2653  231.2   0.47   0.50   74.6   0.90    0.59    0.60    0.42    0.20    0.14    0.03      151     147
 1997 247    99    98   23.7      5  2.152    933   1575   1970    255   2508   5203    736   267.8  0.379   2695    467  0.000  0.000  0.000  0.000  0.000  0.000  0.000    2.88  73.11   0.52      0   2695  230.8   0.47   0.50   74.6   0.90    0.58    0.59    0.41    0.20    0.14    0.03      152     149
 1997 248   100    99   23.8      8  2.146    943   1625   2006    252   2568   5298    736   272.7  0.379   2730    467  0.000  0.000  0.559  0.000  0.000  0.000  0.000    2.81  73.50   0.52      0   2730  227.5   0.47   0.50   74.6   0.90    0.58    0.58    0.41    0.20    0.14    0.03      154     152

*DSSAT Cropping System Model Ver. 4.5.1.023 -Stub         NOV 06, 2014; 23:59:41
                                                                                
*RUN   2        : 97 DATE1 F-MIX            CRGRO045 GHNY9701    2              
 MODEL          : CRGRO045 - Peanut                                             
 EXPERIMENT     : GHNY9701 PN 1997 VARIETY X PLANTING DATE EXPERIMENT           
 DATA PATH      :                                                               
 TREATMENT  2   : 97 DATE1 F-MIX            CRGRO045                            
  
!                                                                                                                                                                                                                                                    Root Dens. (cm/cm3) by soil depth (cm):
!                                                                                                                                                                                                                                                    0-5    5-15   15-30   30-45   45-60   60-90
@YEAR DOY   DAS   DAP   L#SD   GSTD   LAID   LWAD   SWAD   GWAD   RWAD   VWAD   CWAD   G#AD    GWGD   HIAD   PWAD   P#AD   WSPD   WSGD   NSTD  PST1A  PST2A   KSTD   EWSD    LN%D   SH%D   HIPD   PWDD   PWTD   SLAD   CHTD   CWID   NWAD   RDPD    RL1D    RL2D    RL3D    RL4D    RL5D    RL6D    SNW0C   SNW1C
 1997 149     1     0    0.0      0  0.000      0      0      0      0      0      0      0     0.0  0.000      0      0  0.000  0.000  0.000  0.000  0.000  0.000  0.000    0.00   0.00   0.00      0      0    0.0   0.00   0.00    0.0   0.00    0.00    0.00    0.00    0.00    0.00    0.00        0       0
 1997 150     2     1    0.0      0  0.000      0      0      0      0      0      0      0     0.0  0.000      0      0  0.000  0.000  0.000  0.000  0.000  0.000  0.000    0.00   0.00   0.00      0      0    0.0   0.00   0.00    0.0   0.00    0.00    0.00    0.00    0.00    0.00    0.00        0       0
 1997 151     3     2    0.0      0  0.000      0      0      0      0      0      0      0     0.0  0.000      0      0  0.000  0.000  0.000  0.000  0.000  0.000  0.000    0.00   0.00   0.00      0      0    0.0   0.00   0.00    0.0   0.00    0.00    0.00    0.00    0.00    0.00    0.00        0       0
 1997 152     4     3    0.0      0  0.000      0      0      0      0      0      0      0     0.0  0.000      0      0  0.000  0.000  0.000  0.000  0.000  0.000  0.000    0.00   0.00   0.00      0      0    0.0   0.00   0.00    0.0   0.00    0.00    0.00    0.00    0.00    0.00    0.00        0       0
 1997 153     5     4    0.0      0  0.000      0      0      0      0      0      0      0     0.0  0.000      0      0  0.000  0.000  0.000  0.000  0.000  0.000  0.000    0.00   0.00   0.00      0      0    0.0   0.00   0.00    0.0   0.00    0.00    0.00    0.00    0.00    0.00    0.00        0       0
 1997 154     6     5    0.0      0  0.000      0      0      0      0      0      0      0     0.0  0.000      0      0  0.000  0.000  0.000  0.000  0.000  0.000  0.000    0.00   0.00   0.00      0      0    0.0   0.00   0.00    0.0   0.00    0.00    0.00    0.00    0.00    0.00    0.00        0       0
 1997 155     7     6    0.0      0  0.000      0      0      0      0      0      0      0     0.0  0.000      0      0  0.000  0.000  0.000  0.000  0.000  0.000  0.000    0.00   0.00   0.00      0      0    0.0   0.00   0.00    0.0   0.00    0.00    0.00    0.00    0.00    0.00    0.00        0       0
 1997 156     8     7    0.0      0  0.000      0      0      0      0      0      0      0     0.0  0.000      0      0  0.000  0.000  0.000  0.000  0.000  0.000  0.000    0.00   0.00   0.00      0      0    0.0   0.00   0.00    0.0   0.00    0.00    0.00    0.00    0.00    0.00    0.00        0       0
 1997 157     9     8    0.2      0  0.016     11      2      0     11     13     13      0     0.0  0.000      0      0  0.000  0.000  0.000  0.000  0.000  0.000  0.000    5.36   0.00   0.00      0      0  142.9   0.02   0.03    1.4   0.27    0.04    0.04    0.02    0.00    0.00    0.00        0       0
 1997 158    10     9    0.5      0  0.018     12      3      0     13     14     14      0     0.0  0.000      0      0  0.000  0.000  0.685  0.000  0.000  0.000  0.000    5.29   0.00   0.00      0      0  156.0   0.02   0.03    1.5   0.29    0.04    0.04    0.02    0.00    0.00    0.00        0       0
 1997 159    11    10    0.7      0  0.021     13      3      0     14     15     15      0     0.0  0.000      0      0  0.000  0.000  0.399  0.000  0.000  0.000  0.000    5.29   0.00   0.00      0      0  170.7   0.03   0.04    1.5   0.32    0.04    0.04    0.03    0.00    0.00    0.00        0       0
 1997 160    12    11    1.3      0  0.028     15      3      0     15     18     18      0     0.0  0.000      0      0  0.000  0.000  0.146  0.000  0.000  0.000  0.000    5.19   0.00   0.00      0      0  192.2   0.03   0.05    1.8   0.35    0.05    0.05    0.03    0.00    0.00    0.00        0       1
 1997 161    13    12    1.9      0  0.036     17      3      0     16     20     20      0     0.0  0.000      0      0  0.000  0.000  0.000  0.000  0.000  0.000  0.000    5.13   0.00   0.00      0      0  214.1   0.04   0.06    2.1   0.37    0.05    0.05    0.03    0.00    0.00    0.00        0       1
 1997 162    14    13    2.4      0  0.044     19      3      0     16     22     22      0     0.0  0.000      0      0  0.000  0.000  0.000  0.000  0.000  0.000  0.000    5.12   0.00   0.00      0      0  236.2   0.04   0.07    2.1   0.40    0.05    0.05    0.03    0.00    0.00    0.00        0       1
 1997 163    15    14    2.8      0  0.050     21      4      0     18     25     25      0     0.0  0.000      0      0  0.000  0.113  0.143  0.000  0.000  0.000  0.000    4.98   0.00   0.00      0      0  238.2   0.05   0.08    2.6   0.43    0.06    0.05    0.04    0.00    0.00    0.00        0       1
 1997 164    16    15    3.3      0  0.057     23      5      0     20     28     28      0     0.0  0.000      0      0  0.000  0.000  0.000  0.000  0.000  0.000  0.000    4.97   0.00   0.00      0      0  251.0   0.06   0.09    2.7   0.46    0.06    0.06    0.04    0.00    0.00    0.00        0       1
 1997 165    17    16    3.7      0  0.065     25      7      0     22     32     32      0     0.0  0.000      0      0  0.000  0.000  0.043  0.000  0.000  0.000  0.000    4.87   0.00   0.00      0      0  258.7   0.06   0.11    3.2   0.48    0.06    0.06    0.04    0.01    0.00    0.00        0       1
 1997 166    18    17    4.1      0  0.073     27      8      0     24     36     36      0     0.0  0.000      0      0  0.000  0.000  0.000  0.000  0.000  0.000  0.000    4.79   0.00   0.00      0      0  266.3   0.07   0.12    3.9   0.51    0.07    0.07    0.04    0.01    0.00    0.00        0       2
 1997 167    19    18    4.5      0  0.080     30     11      0     27     40     40      0     0.0  0.000      0      0  0.000  0.000  0.000  0.000  0.000  0.000  0.000    4.74   0.00   0.00      0      0  271.7   0.07   0.13    4.7   0.54    0.07    0.07    0.05    0.01    0.00    0.00        1       2
 1997 168    20    19    4.8      0  0.086     32     14      0     30     46     46      0     0.0  0.000      0      0  0.000  0.000  0.000  0.000  0.000  0.000  0.000    4.72   0.00   0.00      0      0  273.2   0.07   0.14    5.5   0.56    0.08    0.08    0.05    0.01    0.00    0.00        1       2
 1997 169    21    20    5.1      0  0.100     36     17      0     32     53     53      0     0.0  0.000      0      0  0.000  0.000  0.000  0.000  0.000  0.000  0.000    4.62   0.00   0.00      0      0  276.8   0.08   0.15    6.6   0.59    0.09    0.09    0.06    0.01    0.00    0.00        1       2
 1997 170    22    21    5.4      0  0.114     40     19      0     34     60     60      0     0.0  0.000      0      0  0.000  0.000  0.000  0.000  0.000  0.000  0.000    4.62   0.00   0.00      0      0  281.3   0.08   0.16    7.5   0.62    0.09    0.09    0.06    0.02    0.01    0.00        1       3
 1997 171    23    22    5.7      0  0.130     46     23      0     36     69     69      0     0.0  0.000      0      0  0.000  0.000  0.000  0.000  0.000  0.000  0.000    4.57   0.00   0.00      0      0  282.5   0.09   0.16    9.0   0.64    0.10    0.09    0.06    0.02    0.01    0.00        1       3
 1997 172    24    23    6.0      0  0.149     52     28      0     39     80     80      0     0.0  0.000      0      0  0.000  0.000  0.000  0.000  0.000  0.000  0.000    4.56   0.00   0.00      0      0  286.9   0.09   0.17   10.6   0.67    0.10    0.10    0.07    0.02    0.01    0.00        1       3
 1997 173    25    24    6.4      0  0.169     56     31      0     40     87     87      0     0.0  0.000      0      0  0.000  0.000  0.000  0.000  0.000  0.000  0.000    4.59   0.00   0.00      0      0  298.5   0.09   0.18   10.7   0.70    0.10    0.10    0.07    0.02    0.01    0.00        1       4
 1997 174    26    25    6.6      0  0.185     62     35      0     42     97     97      0     0.0  0.000      0      0  0.000  0.000  0.000  0.000  0.000  0.000  0.000    4.64   0.00   0.00      0      0  299.7   0.10   0.19   10.9   0.72    0.11    0.11    0.07    0.02    0.01    0.00        1       4
 1997 175    27    26    6.9      0  0.208     69     41      0     44    109    109      0     0.0  0.000      0      0  0.000  0.000  0.000  0.000  0.000  0.000  0.000    4.65   0.00   0.00      0      0  303.1   0.10   0.20   11.8   0.75    0.11    0.11    0.08    0.02    0.01    0.00        1       4
 1997 176    28    27    7.3      0  0.237     77     48      0     46    125    125      0     0.0  0.000      0      0  0.000  0.000  0.000  0.000  0.000  0.000  0.000    4.59   0.00   0.00      0      0  307.7   0.10   0.21   14.1   0.78    0.12    0.12    0.08    0.03    0.01    0.00        2       5
 1997 177    29    28    7.6      1  0.271     88     58      0     49    146    146      0     0.0  0.000      0      0  0.000  0.000  0.000  0.000  0.000  0.000  0.000    4.50   0.00   0.00      0      0  307.8   0.11   0.22   17.0   0.81    0.12    0.12    0.08    0.03    0.02    0.00        2       5
 1997 178    30    29    7.9      1  0.307     99     68      0     52    168    168      0     0.0  0.000      0      0  0.000  0.000  0.000  0.000  0.000  0.000  0.000    4.48   0.00   0.00      0      0  308.7   0.11   0.24   20.0   0.83    0.13    0.13    0.09    0.03    0.02    0.00        2       6
 1997 179    31    30    8.2      1  0.343    110     78      0     55    188    188      0     0.0  0.000      0      0  0.000  0.000  0.000  0.000  0.000  0.000  0.000    4.54   0.00   0.00      0      0  312.2   0.12   0.25   20.3   0.86    0.14    0.14    0.09    0.03    0.02    0.00        2       6
 1997 180    32    31    8.5      1  0.379    123     90      0     61    213    213      0     0.0  0.000      0      0  0.000  0.095  0.000  0.000  0.000  0.000  0.000    4.51   0.00   0.00      0      0  308.4   0.12   0.26   24.3   0.89    0.15    0.15    0.10    0.04    0.02    0.00        3       7
 1997 181    33    32    8.8      1  0.426    137    104      0     65    241    241      0     0.0  0.000      0      0  0.000  0.000  0.000  0.000  0.000  0.000  0.000    4.56   0.00   0.00      0      0  311.3   0.12   0.27   25.2   0.90    0.16    0.16    0.11    0.04    0.02    0.00        3       7
 1997 182    34    33    9.2      1  0.480    153    120      0     69    273    273      0     0.0  0.000      0      0  0.000  0.000  0.000  0.000  0.000  0.000  0.000    4.55   0.00   0.00      0      0  314.0   0.13   0.29   28.9   0.90    0.16    0.16    0.11    0.04    0.03    0.00        3       8
 1997 183    35    34    9.5      1  0.526    165    132      0     72    297    297      0     0.0  0.000      0      0  0.000  0.000  0.000  0.000  0.000  0.000  0.000    4.58   0.00   0.00      0      0  318.9   0.13   0.30   29.2   0.90    0.17    0.17    0.12    0.05    0.03    0.00        4       8
 1997 184    36    35    9.8      1  0.570    179    146      0     75    324    324      0     0.0  0.000      0      0  0.000  0.000  0.000  0.000  0.000  0.000  0.000    4.62   0.00   0.00      0      0  318.9   0.14   0.31   29.6   0.90    0.18    0.18    0.12    0.05    0.03    0.00        4       9
 1997 185    37    36   10.1      1  0.619    193    161      0     79    354    354      0     0.0  0.000      0      0  0.000  0.000  0.000  0.000  0.000  0.000  0.000    4.65   0.00   0.00      0      0  320.2   0.14   0.33   29.9   0.90    0.19    0.19    0.13    0.05    0.03    0.00        4      10
 1997 186    38    37   10.4      1  0.683    214    183      0     85    397    397      0     0.0  0.000      0      0  0.000  0.000  0.000  0.000  0.000  0.000  0.000    4.59   0.00   0.00      0      0  318.7   0.15   0.34   35.9   0.90    0.20    0.20    0.14    0.06    0.04    0.00        5      10
 1997 187    39    38   10.7      2  0.748    236    207      0     91    443    443      0     0.0  0.000      0      0  0.000  0.000  0.000  0.000  0.000  0.000  0.000    4.59   0.00   0.00      0      0  316.8   0.15   0.36   39.4   0.90    0.21    0.21    0.15    0.06    0.04    0.01        6      11
 1997 188    40    39   11.0      2  0.817    260    233      0     97    493    493      0     0.0  0.000      0      0  0.000  0.000  0.000  0.000  0.000  0.000  0.000    4.59   0.00   0.00      0      0  314.0   0.16   0.37   42.7   0.90    0.22    0.22    0.15    0.07    0.04    0.01        6      12
 1997 189    41    40   11.3      2  0.873    285    260      0    111    546    546      0     0.0  0.000      0      0  0.000  0.132  0.000  0.000  0.000  0.000  0.000    4.58   0.00   0.00      0      0  306.1   0.16   0.38   49.7   0.90    0.25    0.25    0.17    0.08    0.05    0.01        7      13
 1997 190    42    41   11.6      2  0.953    314    293      0    118    608    608      0     0.0  0.000      0      0  0.000  0.000  0.000  0.000  0.000  0.000  0.000    4.61   0.00   0.00      0      0  303.2   0.17   0.39   51.5   0.90    0.27    0.27    0.19    0.08    0.05    0.01        8      14
 1997 191    43    42   11.9      3  1.029    339    321      0    125    660    661      0     0.0  0.000      1      0  0.000  0.000  0.000  0.000  0.000  0.000  0.000    4.63   0.00   0.00      0      1  303.7   0.17   0.41   51.5   0.90    0.28    0.28    0.20    0.09    0.06    0.01        8      15
 1997 192    44    43   12.2      3  1.108    365    352      0    131    716    717      0     0.0  0.000      1      1  0.000  0.000  0.000  0.000  0.000  0.000  0.000    4.65   0.00   0.00      0      1  303.8   0.18   0.42   51.5   0.90    0.30    0.30    0.21    0.09    0.06    0.01        9      16
 1997 193    45    44   12.5      3  1.193    399    392      0    140    791    793      0     0.0  0.000      2      4  0.000  0.000  0.000  0.000  0.000  0.000  0.000    4.63   0.00   0.00      0      2  299.5   0.18   0.44   58.8   0.90    0.32    0.32    0.22    0.10    0.07    0.01       11      17
 1997 194    46    45   12.9      3  1.286    434    437      0    150    871    875      0     0.0  0.000      4      7  0.000  0.000  0.000  0.000  0.000  0.000  0.000    4.61   0.00   0.00      0      4  296.0   0.19   0.45   66.5   0.90    0.34    0.34    0.23    0.11    0.07    0.01       13      19
 1997 195    47    46   13.2      3  1.386    470    482      0    160    953    959      0     0.0  0.000      7     10  0.000  0.000  0.000  0.000  0.000  0.000  0.000    4.64   0.00   0.01      0      7  294.5   0.19   0.47   67.9   0.90    0.36    0.36    0.25    0.11    0.08    0.01       16      20
 1997 196    48    47   13.5      3  1.462    496    517      0    166   1013   1023      0     0.0  0.000     10     14  0.000  0.000  0.000  0.000  0.000  0.000  0.000    4.65   0.00   0.01      0     10  294.6   0.20   0.48   67.9   0.90    0.37    0.37    0.26    0.12    0.08    0.01       19      22
 1997 197    49    48   13.8      3  1.519    517    545      0    172   1061   1075      0     0.0  0.000     14     18  0.000  0.000  0.000  0.000  0.000  0.000  0.000    4.65   0.00   0.01      0     14  294.0   0.20   0.49   67.9   0.90    0.38    0.38    0.27    0.12    0.08    0.01       21      23
 1997 198    50    49   14.1      5  1.612    553    593      0    181   1146   1164      0     0.0  0.000     18     22  0.000  0.000  0.000  0.000  0.000  0.000  0.000    4.65   0.00   0.02      0     18  291.6   0.21   0.50   71.0   0.90    0.40    0.40    0.28    0.13    0.09    0.02       23      25
 1997 199    51    50   14.4      5  1.707    592    645      0    191   1237   1261      2     0.0  0.000     24     25  0.000  0.000  0.000  0.000  0.000  0.000  0.000    4.64   0.00   0.02      0     24  288.4   0.21   0.50   74.4   0.90    0.42    0.42    0.29    0.14    0.09    0.02       25      26
 1997 200    52    51   14.7      5  1.805    633    701      0    202   1333   1364      6     3.6  0.000     30     30  0.000  0.000  0.000  0.000  0.000  0.000  0.000    4.63   0.76   0.02      0     30  285.3   0.22   0.50   80.0   0.90    0.45    0.45    0.31    0.14    0.10    0.02       27      28
 1997 201    53    52   15.0      5  1.887    666    747      1    210   1413   1451     12     8.7  0.001     39     34  0.000  0.000  0.000  0.000  0.000  0.000  0.000    4.63   2.63   0.03      0     39  283.4   0.22   0.50   80.0   0.90    0.47    0.46    0.32    0.15    0.10    0.02       29      30
 1997 202    54    53   15.3      5  1.946    686    777      2    215   1463   1511     17    14.4  0.002     48     38  0.000  0.000  0.000  0.000  0.000  0.000  0.000    4.61   5.04   0.03      0     48  283.7   0.23   0.50   80.0   0.90    0.48    0.48    0.33    0.16    0.11    0.02       31      31
 1997 203    55    54   15.6      5  2.043    731    842      4    226   1573   1633     23    19.3  0.003     59     45  0.000  0.000  0.000  0.000  0.000  0.000  0.000    4.58   7.47   0.04      0     59  279.3   0.23   0.50   90.2   0.90    0.50    0.50    0.35    0.16    0.11    0.02       33      33
 1997 204    56    55   15.9      5  2.141    773    902      7    236   1675   1747     29    24.5  0.004     72     52  0.000  0.000  0.000  0.000  0.000  0.000  0.000    4.59   9.82   0.04      0     72  277.1   0.24   0.50   90.2   0.90    0.52    0.52    0.36    0.17    0.12    0.02       35      36
 1997 205    57    56   16.2      5  2.235    812    961     10    246   1774   1861     35    29.6  0.006     87     60  0.000  0.000  0.000  0.000  0.000  0.000  0.000    4.58  11.98   0.05      0     87  275.1   0.24   0.50   90.2   0.90    0.54    0.54    0.38    0.18    0.12    0.02       37      38
 1997 206    58    57   16.5      5  2.329    858   1030     15    258   1888   1992     41    35.4  0.007    105     66  0.000  0.000  0.000  0.000  0.000  0.000  0.000    4.58  14.00   0.05      0    105  271.4   0.25   0.50   90.3   0.90    0.57    0.57    0.40    0.19    0.13    0.02       40      40
 1997 207    59    58   16.8      5  2.427    903   1100     19    269   2003   2126     48    40.4  0.009    123     71  0.000  0.000  0.000  0.000  0.000  0.000  0.000    4.57  15.78   0.06      0    123  268.7   0.25   0.50   93.1   0.90    0.59    0.59    0.41    0.20    0.14    0.03       43      42
 1997 208    60    59   17.1      5  2.525    947   1168     25    279   2114   2257     56    44.4  0.011    143     79  0.000  0.000  0.000  0.000  0.000  0.000  0.000    4.57  17.42   0.06      0    143  266.8   0.25   0.50   93.1   0.90    0.61    0.61    0.43    0.20    0.14    0.03       45      45
 1997 209    61    60   17.5      5  2.621    992   1241     31    290   2233   2397     62    50.0  0.013    164     87  0.000  0.000  0.000  0.000  0.000  0.000  0.000    4.56  19.02   0.07      0    164  264.1   0.26   0.50   93.8   0.90    0.64    0.64    0.45    0.21    0.15    0.03       48      48
 1997 210    62    61   17.8      5  2.695   1022   1292     39    297   2314   2503     72    53.3  0.015    188     96  0.000  0.000  0.000  0.000  0.000  0.000  0.000    4.54  20.49   0.08      0    188  263.6   0.26   0.50   93.8   0.90    0.65    0.65    0.46    0.22    0.15    0.03       52      50
 1997 211    63    62   18.1      5  2.748   1043   1332     47    302   2375   2590     84    56.2  0.018    215    106  0.000  0.000  0.000  0.000  0.000  0.000  0.000    4.51  21.99   0.08      0    215  263.3   0.27   0.50   93.8   0.90    0.67    0.66    0.46    0.22    0.15    0.03       55      53
 1997 212    64    63   18.4      5  2.782   1058   1360     58    304   2418   2663     97    59.6  0.022    245    115  0.000  0.000  0.000  0.000  0.000  0.000  0.000    4.48  23.53   0.09      0    245  263.0   0.27   0.50   93.8   0.90    0.67    0.67    0.47    0.22    0.16    0.03       58      56
 1997 213    65    64   18.6      5  2.832   1080   1402     70    309   2482   2759    108    64.6  0.025    277    124  0.000  0.000  0.000  0.000  0.000  0.000  0.000    4.45  25.08   0.10      0    277  262.3   0.28   0.50   93.8   0.90    0.68    0.68    0.48    0.23    0.16    0.03       62      58
 1997 214    66    65   18.9      5  2.909   1120   1475     82    319   2595   2906    116    71.2  0.028    311    135  0.000  0.000  0.000  0.000  0.000  0.000  0.000    4.45  26.46   0.11      0    311  259.6   0.28   0.50   93.8   0.90    0.70    0.70    0.49    0.24    0.16    0.03       65      61
 1997 215    67    66   19.2      5  2.982   1158   1543     95    327   2701   3045    128    74.2  0.031    344    143  0.000  0.000  0.000  0.000  0.000  0.000  0.000    4.43  27.66   0.11      0    344  257.5   0.29   0.50   93.8   0.90    0.72    0.72    0.50    0.24    0.17    0.03       69      64
 1997 216    68    67   19.5      5  3.030   1179   1586    110    332   2765   3146    142    77.9  0.035    381    151  0.000  0.000  0.000  0.000  0.000  0.000  0.000    4.40  28.96   0.12      0    381  257.1   0.29   0.50   93.8   0.90    0.73    0.73    0.51    0.25    0.17    0.03       73      67
 1997 217    69    68   19.8      5  3.080   1204   1636    127    337   2840   3261    156    81.8  0.039    421    157  0.000  0.000  0.000  0.000  0.000  0.000  0.000    4.38  30.25   0.13      0    421  255.9   0.29   0.50   93.8   0.90    0.75    0.75    0.52    0.25    0.18    0.03       77      70
 1997 218    70    69   20.1      5  3.095   1210   1656    147    337   2866   3330    172    85.2  0.044    464    165  0.000  0.000  0.000  0.000  0.000  0.000  0.000    4.33  31.58   0.14      0    464  255.8   0.30   0.50   93.8   0.90    0.75    0.75    0.52    0.25    0.18    0.03       81      73
 1997 219    71    70   20.4      5  3.134   1230   1699    167    341   2929   3437    188    88.9  0.049    508    176  0.000  0.000  0.000  0.000  0.000  0.000  0.000    4.31  32.89   0.15      0    508  254.8   0.30   0.50   93.8   0.90    0.76    0.76    0.53    0.26    0.18    0.03       85      76
 1997 220    72    71   20.6      5  3.187   1264   1769    189    349   3033   3588    202    93.9  0.053    554    186  0.000  0.000  0.000  0.000  0.000  0.000  0.000    4.29  34.18   0.15      0    554  252.0   0.30   0.50   93.8   0.90    0.77    0.77    0.54    0.26    0.18    0.04       89      79
 1997 221    73    72   20.9      5  3.226   1285   1817    213    353   3102   3703    219    97.1  0.058    602    195  0.000  0.000  0.000  0.000  0.000  0.000  0.000    4.27  35.41   0.16      0    602  251.0   0.31   0.50   93.8   0.90    0.78    0.78    0.55    0.26    0.19    0.04       93      83
 1997 222    74    73   21.2      5  3.275   1316   1884    239    360   3200   3853    234   102.4  0.062    653    205  0.000  0.000  0.000  0.000  0.000  0.000  0.000    4.25  36.64   0.17      0    653  248.8   0.31   0.50   93.8   0.90    0.80    0.80    0.56    0.27    0.19    0.04       97      86
 1997 223    75    74   21.5      5  3.322   1347   1951    267    367   3298   4003    246   108.4  0.067    705    211  0.000  0.000  0.000  0.000  0.000  0.000  0.000    4.23  37.83   0.18      0    705  246.6   0.31   0.50   93.8   0.90    0.81    0.81    0.57    0.28    0.19    0.04      101      89
 1997 224    76    75   21.7      5  3.359   1371   2006    296    371   3377   4136    257   115.2  0.072    759    220  0.000  0.000  0.000  0.000  0.000  0.000  0.000    4.20  38.99   0.18      0    759  245.1   0.32   0.50   93.8   0.90    0.83    0.83    0.58    0.28    0.20    0.04      105      93
 1997 225    77    76   22.0      5  3.397   1394   2063    326    376   3457   4272    270   120.7  0.076    815    231  0.000  0.000  0.000  0.000  0.000  0.000  0.000    4.18  40.06   0.19      0    815  243.6   0.32   0.50   93.8   0.90    0.83    0.84    0.58    0.28    0.20    0.04      110      96
 1997 226    78    77   22.3      5  3.431   1416   2116    358    380   3532   4402    289   123.9  0.081    870    240  0.000  0.000  0.000  0.000  0.000  0.000  0.000    4.15  41.10   0.20      0    870  242.4   0.32   0.50   93.8   0.90    0.83    0.85    0.59    0.29    0.20    0.04      114     100
 1997 227    79    78   22.5      5  3.429   1415   2126    393    378   3541   4473    306   128.6  0.088    932    252  0.000  0.000  0.000  0.000  0.000  0.000  0.000    4.11  42.19   0.21      0    932  242.4   0.33   0.50   93.8   0.90    0.83    0.85    0.59    0.29    0.20    0.04      119     104
 1997 228    80    79   22.8      5  3.459   1436   2181    427    382   3617   4607    320   133.5  0.093    990    263  0.000  0.000  0.000  0.000  0.000  0.000  0.000    4.09  43.16   0.21      0    990  240.8   0.33   0.50   93.8   0.90    0.84    0.86    0.60    0.29    0.20    0.04      123     107
 1997 229    81    80   23.0      5  3.472   1445   2212    465    383   3657   4710    335   138.6  0.099   1052    273  0.000  0.000  0.000  0.000  0.000  0.000  0.000    4.05  44.17   0.22      0   1052  240.2   0.33   0.50   93.8   0.90    0.84    0.86    0.60    0.29    0.20    0.04      127     111
 1997 230    82    81   23.3      5  3.496   1463   2261    502    386   3724   4837    346   144.9  0.104   1113    284  0.000  0.000  0.000  0.000  0.000  0.000  0.000    4.03  45.10   0.23      0   1113  238.9   0.34   0.50   93.8   0.90    0.85    0.87    0.60    0.29    0.21    0.04      132     114
 1997 231    83    82   23.5      5  3.519   1484   2318    543    390   3801   4981    360   150.6  0.109   1180    294  0.000  0.000  0.000  0.000  0.000  0.000  0.000    4.01  46.03   0.24      0   1180  237.2   0.34   0.50   93.8   0.90    0.86    0.88    0.61    0.30    0.21    0.04      137     118
 1997 232    84    83   23.8      5  3.539   1502   2369    586    393   3871   5120    379   154.8  0.115   1249    300  0.000  0.000  0.000  0.000  0.000  0.000  0.000    3.99  46.95   0.24      0   1249  235.7   0.34   0.50   93.8   0.90    0.87    0.88    0.62    0.30    0.21    0.04      141     121
 1997 233    85    84   24.0      5  3.565   1524   2431    628    397   3955   5269    394   159.5  0.119   1314    310  0.000  0.000  0.000  0.000  0.000  0.000  0.000    3.97  47.79   0.25      0   1314  233.9   0.35   0.50   93.8   0.90    0.88    0.89    0.62    0.30    0.21    0.04      146     125
 1997 234    86    85   24.3      5  3.575   1533   2465    672    398   3998   5379    412   163.0  0.125   1381    318  0.000  0.000  0.000  0.000  0.000  0.000  0.000    3.94  48.64   0.26      0   1381  233.2   0.35   0.50   93.8   0.90    0.88    0.89    0.62    0.30    0.21    0.04      151     129
 1997 235    87    86   24.5      5  3.551   1525   2467    719    393   3992   5417    430   167.1  0.133   1426    326  0.000  0.000  0.000  0.000  0.000  0.000  0.000    3.89  50.41   0.26      0   1426  232.8   0.35   0.50   92.1   0.90    0.87    0.89    0.62    0.30    0.21    0.04      156     134
 1997 236    88    87   24.7      5  3.555   1532   2497    769    394   4029   5529    447   172.1  0.139   1500    336  0.000  0.000  0.000  0.000  0.000  0.000  0.000    3.86  51.27   0.27      0   1500  232.1   0.36   0.50   92.1   0.90    0.87    0.89    0.62    0.30    0.21    0.04      161     138
 1997 237    89    88   24.9      5  3.566   1546   2546    820    396   4092   5666    464   176.8  0.145   1574    346  0.000  0.000  0.000  0.000  0.000  0.000  0.000    3.84  52.09   0.28      0   1574  230.7   0.36   0.50   92.1   0.90    0.88    0.89    0.62    0.30    0.21    0.04      167     142
 1997 238    90    89   25.1      5  3.566   1550   2570    874    395   4120   5773    480   182.2  0.151   1653    355  0.000  0.000  0.000  0.000  0.000  0.000  0.000    3.81  52.88   0.29      0   1653  230.1   0.36   0.50   92.1   0.90    0.88    0.89    0.62    0.30    0.21    0.04      172     145
 1997 239    91    90   25.3      5  3.569   1556   2601    928    395   4158   5888    491   189.1  0.158   1731    363  0.000  0.000  0.000  0.000  0.000  0.000  0.000    3.78  53.64   0.29      0   1731  229.3   0.36   0.50   92.1   0.90    0.88    0.89    0.62    0.30    0.21    0.04      177     149
 1997 240    92    91   25.5      5  3.558   1552   2606    984    393   4158   5947    506   194.6  0.165   1789    367  0.000  0.000  0.000  0.000  0.000  0.000  0.000    3.74  55.00   0.30      0   1789  229.3   0.36   0.50   92.1   0.90    0.88    0.89    0.62    0.30    0.21    0.04      181     152
 1997 241    93    92   25.7      5  3.564   1563   2648   1042    394   4211   6081    519   200.6  0.171   1869    375  0.000  0.000  0.000  0.000  0.000  0.000  0.000    3.73  55.72   0.31      0   1869  228.0   0.37   0.50   92.1   0.90    0.88    0.89    0.62    0.30    0.21    0.04      186     156
 1997 242    94    93   25.8      5  3.567   1571   2685   1101    395   4257   6208    533   206.5  0.177   1952    384  0.000  0.000  0.000  0.000  0.000  0.000  0.000    3.71  56.42   0.31      0   1952  227.0   0.37   0.50   92.1   0.90    0.88    0.90    0.63    0.31    0.22    0.04      191     160
 1997 243    95    94   26.0      5  3.570   1580   2725   1161    395   4306   6339    550   211.2  0.183   2033    391  0.000  0.000  0.000  0.000  0.000  0.000  0.000    3.68  57.10   0.32      0   2033  225.9   0.37   0.50   92.1   0.90    0.88    0.90    0.63    0.31    0.22    0.04      196     164
 1997 244    96    95   26.2      5  3.570   1586   2755   1219    395   4341   6452    566   215.4  0.189   2111    399  0.000  0.000  0.000  0.000  0.000  0.000  0.000    3.66  57.75   0.33      0   2111  225.1   0.37   0.50   92.1   0.90    0.88    0.90    0.63    0.31    0.22    0.04      201     167
 1997 245    97    96   26.4      5  3.566   1589   2781   1282    394   4371   6564    582   220.4  0.195   2194    404  0.000  0.000  0.000  0.000  0.000  0.000  0.000    3.64  58.42   0.33      0   2194  224.4   0.38   0.50   92.1   0.90    0.88    0.90    0.63    0.31    0.22    0.04      206     171
 1997 246    98    97   26.6      5  3.555   1585   2788   1347    392   4373   6631    594   226.6  0.203   2258    412  0.000  0.000  0.000  0.000  0.000  0.000  0.000    3.60  59.65   0.34      0   2258  224.3   0.38   0.50   92.1   0.90    0.88    0.89    0.62    0.31    0.22    0.04      210     175
 1997 247    99    98   26.8      5  3.544   1581   2795   1411    390   4376   6697    602   234.6  0.211   2322    420  0.000  0.000  0.000  0.000  0.000  0.000  0.000    3.57  60.79   0.35      0   2322  224.2   0.38   0.50   92.1   0.90    0.88    0.89    0.62    0.30    0.21    0.04      215     178
 1997 248   100    99   26.9      5  3.540   1584   2821   1473    389   4406   6809    615   239.6  0.216   2403    428  0.000  0.000  0.000  0.000  0.000  0.000  0.000    3.54  61.31   0.35      0   2403  223.4   0.38   0.50   92.1   0.90    0.87    0.89    0.62    0.30    0.21    0.04      219     182
 1997 249   101   100   27.1      5  3.530   1582   2832   1537    387   4413   6891    629   244.2  0.223   2478    435  0.000  0.000  0.000  0.000  0.000  0.000  0.000    3.51  62.03   0.36      0   2478  223.2   0.38   0.50   92.1   0.90    0.87    0.88    0.62    0.30    0.21    0.04      223     186
 1997 250   102   101   27.2      5  3.522   1582   2850   1602    385   4431   6994    642   249.6  0.229   2563    442  0.000  0.000  0.000  0.000  0.000  0.000  0.000    3.49  62.52   0.37      0   2563  222.7   0.39   0.50   92.1   0.90    0.87    0.88    0.62    0.30    0.21    0.04      228     189
 1997 251   103   102   27.4      5  3.518   1587   2882   1667    385   4469   7114    663   251.2  0.234   2645    447  0.000  0.000  0.000  0.000  0.000  0.000  0.000    3.47  63.01   0.37      0   2645  221.7   0.39   0.50   92.1   0.90    0.87    0.88    0.62    0.30    0.21    0.04      232     193
 1997 252   104   103   27.5      5  3.507   1583   2888   1732    382   4471   7178    677   255.9  0.241   2707    452  0.000  0.000  0.000  0.000  0.000  0.000  0.000    3.44  63.98   0.38      0   2707  221.6   0.39   0.50   92.1   0.90    0.86    0.88    0.61    0.30    0.21    0.04      236     196
 1997 253   105   104   27.5      5  3.497   1581   2901   1799    380   4482   7267    690   260.7  0.248   2786    458  0.000  0.000  0.000  0.000  0.000  0.000  0.000    3.41  64.58   0.38      0   2786  221.3   0.39   0.50   92.1   0.90    0.86    0.87    0.61    0.30    0.21    0.04      240     200
 1997 254   106   105   27.5      5  3.487   1579   2913   1868    378   4492   7354    703   265.7  0.254   2863    463  0.000  0.000  0.000  0.000  0.000  0.000  0.000    3.38  65.26   0.39      0   2863  220.9   0.39   0.50   92.1   0.90    0.86    0.87    0.61    0.30    0.21    0.04      244     203
 1997 255   107   106   27.5      5  3.481   1580   2936   1935    377   4516   7462    703   275.1  0.259   2946    469  0.000  0.000  0.000  0.000  0.000  0.000  0.000    3.36  65.68   0.39      0   2946  220.3   0.39   0.50   92.1   0.90    0.85    0.87    0.61    0.30    0.21    0.04      247     207
 1997 256   108   107   27.5      5  3.476   1583   2963   1997    376   4546   7569    714   279.5  0.264   3023    474  0.000  0.000  0.000  0.000  0.000  0.000  0.000    3.35  66.05   0.40      0   3023  219.5   0.40   0.50   92.1   0.90    0.85    0.86    0.60    0.30    0.21    0.04      251     211
 1997 257   109   108   27.5      5  3.466   1582   2976   2064    374   4558   7661    726   284.2  0.269   3103    476  0.000  0.000  0.000  0.000  0.000  0.000  0.000    3.32  66.51   0.41      0   3103  219.1   0.40   0.50   92.1   0.90    0.85    0.86    0.60    0.29    0.21    0.04      255     214
 1997 258   110   109   27.5      5  3.460   1584   3002   2127    373   4586   7766    735   289.4  0.274   3180    480  0.000  0.000  0.000  0.000  0.000  0.000  0.000    3.31  66.89   0.41      0   3180  218.4   0.40   0.50   92.1   0.90    0.85    0.86    0.60    0.29    0.21    0.04      258     217
 1997 259   111   110   27.5      5  3.453   1586   3026   2192    372   4612   7871    743   294.9  0.278   3259    485  0.000  0.000  0.000  0.000  0.000  0.000  0.000    3.29  67.26   0.41      0   3259  217.7   0.40   0.50   92.1   0.90    0.84    0.86    0.60    0.29    0.21    0.04      262     221
 1997 260   112   111   27.5      5  3.446   1589   3053   2254    371   4642   7977    753   299.3  0.283   3335    490  0.000  0.000  0.000  0.000  0.000  0.000  0.000    3.27  67.60   0.42      0   3335  216.9   0.40   0.50   92.1   0.90    0.84    0.85    0.60    0.29    0.21    0.04      266     224
 1997 261   113   112   27.5      5  3.429   1584   3063   2308    367   4647   8033    762   303.1  0.287   3386    494  0.000  0.000  0.000  0.000  0.000  0.000  0.000    3.22  68.18   0.42      0   3386  216.4   0.40   0.50   92.1   0.90    0.84    0.85    0.59    0.29    0.20    0.04      269     227
 1997 262   114   113   27.5      5  3.418   1582   3075   2371    365   4657   8118    771   307.5  0.292   3461    498  0.000  0.000  0.000  0.000  0.000  0.000  0.000    3.20  68.51   0.43      0   3461  216.1   0.40   0.50   92.1   0.90    0.83    0.84    0.59    0.29    0.20    0.04      273     231
 1997 263   115   114   27.5      5  3.407   1578   3082   2431    362   4660   8190    781   311.4  0.297   3529    502  0.000  0.000  0.000  0.000  0.000  0.000  0.000    3.17  68.88   0.43      0   3529  215.9   0.40   0.50   92.1   0.90    0.83    0.84    0.59    0.29    0.20    0.04      276     234
 1997 264   116   115   27.5      5  3.402   1582   3111   2489    361   4693   8290    783   317.8  0.300   3597    507  0.000  0.000  0.000  0.000  0.000  0.000  0.000    3.16  69.18   0.43      0   3597  215.1   0.40   0.50   92.1   0.90    0.82    0.84    0.58    0.29    0.20    0.04      279     238
 1997 265   117   116   27.5      5  3.396   1584   3135   2544    360   4719   8380    791   321.7  0.304   3662    511  0.000  0.000  0.000  0.000  0.000  0.000  0.000    3.14  69.47   0.44      0   3662  214.5   0.40   0.50   92.1   0.90    0.82    0.83    0.58    0.28    0.20    0.04      282     241
 1997 266   118   117   27.5      5  3.382   1579   3139   2587    356   4718   8421    798   324.1  0.307   3703    511  0.000  0.000  0.000  0.000  0.000  0.000  0.000    3.10  69.88   0.44      0   3703  214.2   0.40   0.50   92.1   0.90    0.81    0.82    0.58    0.28    0.20    0.04      285     244
 1997 267   119   118   27.5      5  3.376   1582   3168   2640    355   4750   8514    806   327.5  0.310   3764    514  0.000  0.000  0.000  0.000  0.000  0.000  0.000    3.09  70.13   0.44      0   3764  213.4   0.40   0.50   92.1   0.90    0.81    0.82    0.57    0.28    0.20    0.04      288     248
 1997 268   120   119   27.5      5  3.363   1578   3174   2689    352   4752   8563    813   330.6  0.314   3811    516  0.000  0.000  0.000  0.000  0.000  0.000  0.000    3.05  70.56   0.45      0   3811  213.0   0.40   0.50   92.1   0.90    0.80    0.82    0.57    0.28    0.20    0.04      291     251
 1997 269   121   120   27.5      5  3.356   1579   3191   2738    350   4770   8638    820   333.7  0.317   3868    519  0.000  0.000  0.000  0.000  0.000  0.000  0.000    3.03  70.79   0.45      0   3868  212.6   0.40   0.50   92.1   0.90    0.80    0.81    0.57    0.28    0.20    0.04      294     254
 1997 270   122   121   27.5      8  3.344   1591   3272   2782    346   4863   8773    827   336.3  0.317   3910    522  0.000  0.000  0.533  0.000  0.000  0.000  0.000    2.97  71.16   0.45      0   3910  210.2   0.40   0.50   92.1   0.90    0.79    0.80    0.56    0.28    0.19    0.04      296     257

*DSSAT Cropping System Model Ver. 4.5.1.023 -Stub         NOV 06, 2014; 23:59:41
                                                                                
*RUN   3        : 97 DATE2 CHINESE          CRGRO045 GHNY9701    3              
 MODEL          : CRGRO045 - Peanut                                             
 EXPERIMENT     : GHNY9701 PN 1997 VARIETY X PLANTING DATE EXPERIMENT           
 DATA PATH      :                                                               
 TREATMENT  3   : 97 DATE2 CHINESE          CRGRO045                            
  
!                                                                                                                                                                                                                                                    Root Dens. (cm/cm3) by soil depth (cm):
!                                                                                                                                                                                                                                                    0-5    5-15   15-30   30-45   45-60   60-90
@YEAR DOY   DAS   DAP   L#SD   GSTD   LAID   LWAD   SWAD   GWAD   RWAD   VWAD   CWAD   G#AD    GWGD   HIAD   PWAD   P#AD   WSPD   WSGD   NSTD  PST1A  PST2A   KSTD   EWSD    LN%D   SH%D   HIPD   PWDD   PWTD   SLAD   CHTD   CWID   NWAD   RDPD    RL1D    RL2D    RL3D    RL4D    RL5D    RL6D    SNW0C   SNW1C
 1997 177     1     0    0.0      0  0.000      0      0      0      0      0      0      0     0.0  0.000      0      0  0.000  0.000  0.000  0.000  0.000  0.000  0.000    0.00   0.00   0.00      0      0    0.0   0.00   0.00    0.0   0.00    0.00    0.00    0.00    0.00    0.00    0.00        0       0
 1997 178     2     1    0.0      0  0.000      0      0      0      0      0      0      0     0.0  0.000      0      0  0.000  0.000  0.000  0.000  0.000  0.000  0.000    0.00   0.00   0.00      0      0    0.0   0.00   0.00    0.0   0.00    0.00    0.00    0.00    0.00    0.00    0.00        0       0
 1997 179     3     2    0.0      0  0.000      0      0      0      0      0      0      0     0.0  0.000      0      0  0.000  0.000  0.000  0.000  0.000  0.000  0.000    0.00   0.00   0.00      0      0    0.0   0.00   0.00    0.0   0.00    0.00    0.00    0.00    0.00    0.00    0.00        0       0
 1997 180     4     3    0.0      0  0.000      0      0      0      0      0      0      0     0.0  0.000      0      0  0.000  0.000  0.000  0.000  0.000  0.000  0.000    0.00   0.00   0.00      0      0    0.0   0.00   0.00    0.0   0.00    0.00    0.00    0.00    0.00    0.00    0.00        0       0
 1997 181     5     4    0.0      0  0.000      0      0      0      0      0      0      0     0.0  0.000      0      0  0.000  0.000  0.000  0.000  0.000  0.000  0.000    0.00   0.00   0.00      0      0    0.0   0.00   0.00    0.0   0.00    0.00    0.00    0.00    0.00    0.00    0.00        0       0
 1997 182     6     5    0.0      0  0.000      0      0      0      0      0      0      0     0.0  0.000      0      0  0.000  0.000  0.000  0.000  0.000  0.000  0.000    0.00   0.00   0.00      0      0    0.0   0.00   0.00    0.0   0.00    0.00    0.00    0.00    0.00    0.00    0.00        0       0
 1997 183     7     6    0.0      0  0.000      0      0      0      0      0      0      0     0.0  0.000      0      0  0.000  0.000  0.000  0.000  0.000  0.000  0.000    0.00   0.00   0.00      0      0    0.0   0.00   0.00    0.0   0.00    0.00    0.00    0.00    0.00    0.00    0.00        0       0
 1997 184     8     7    0.1      0  0.013      9      2      0      9     11     11      0     0.0  0.000      0      0  0.000  0.000  0.000  0.000  0.000  0.000  0.000    5.36   0.00   0.00      0      0  145.6   0.02   0.03    1.4   0.26    0.03    0.03    0.02    0.00    0.00    0.00        0       0
 1997 185     9     8    0.4      0  0.015      9      2      0     10     11     11      0     0.0  0.000      0      0  0.000  0.000  0.618  0.000  0.000  0.000  0.000    5.31   0.00   0.00      0      0  159.8   0.02   0.03    1.4   0.29    0.03    0.03    0.02    0.00    0.00    0.00        0       0
 1997 186    10     9    0.7      0  0.018     10      2      0     11     12     12      0     0.0  0.000      0      0  0.000  0.000  0.363  0.000  0.000  0.000  0.000    5.30   0.00   0.00      0      0  178.8   0.03   0.04    1.5   0.32    0.03    0.03    0.02    0.00    0.00    0.00        0       0
 1997 187    11    10    1.0      0  0.024     12      2      0     11     14     14      0     0.0  0.000      0      0  0.000  0.000  0.000  0.000  0.000  0.000  0.000    5.27   0.00   0.00      0      0  200.2   0.03   0.05    1.5   0.34    0.04    0.04    0.02    0.00    0.00    0.00        0       0
 1997 188    12    11    1.6      0  0.030     14      3      0     12     16     16      0     0.0  0.000      0      0  0.000  0.000  0.000  0.000  0.000  0.000  0.000    5.17   0.00   0.00      0      0  219.8   0.04   0.05    1.8   0.37    0.04    0.04    0.02    0.00    0.00    0.00        0       1
 1997 189    13    12    2.1      0  0.038     16      3      0     13     19     19      0     0.0  0.000      0      0  0.000  0.000  0.089  0.000  0.000  0.000  0.000    5.00   0.00   0.00      0      0  234.5   0.05   0.07    2.2   0.40    0.04    0.04    0.02    0.00    0.00    0.00        0       1
 1997 190    14    13    2.6      0  0.046     18      3      0     14     22     22      0     0.0  0.000      0      0  0.000  0.000  0.072  0.000  0.000  0.000  0.000    4.87   0.00   0.00      0      0  247.6   0.06   0.08    2.6   0.42    0.04    0.04    0.03    0.00    0.00    0.00        0       1
 1997 191    15    14    3.1      0  0.054     21      4      0     15     25     25      0     0.0  0.000      0      0  0.000  0.000  0.000  0.000  0.000  0.000  0.000    4.86   0.00   0.00      0      0  261.1   0.07   0.09    2.8   0.45    0.04    0.04    0.03    0.00    0.00    0.00        0       1
 1997 192    16    15    3.6      0  0.062     23      5      0     16     28     28      0     0.0  0.000      0      0  0.000  0.000  0.000  0.000  0.000  0.000  0.000    4.83   0.00   0.00      0      0  272.6   0.07   0.11    3.3   0.48    0.05    0.05    0.03    0.00    0.00    0.00        0       1
 1997 193    17    16    4.0      0  0.071     26      6      0     18     32     32      0     0.0  0.000      0      0  0.000  0.000  0.000  0.000  0.000  0.000  0.000    4.73   0.00   0.00      0      0  277.6   0.08   0.12    4.0   0.50    0.05    0.05    0.03    0.01    0.00    0.00        0       1
 1997 194    18    17    4.4      0  0.080     28      9      0     21     37     37      0     0.0  0.000      0      0  0.000  0.000  0.000  0.000  0.000  0.000  0.000    4.65   0.00   0.00      0      0  282.5   0.09   0.13    4.8   0.53    0.06    0.06    0.04    0.01    0.00    0.00        0       1
 1997 195    19    18    4.8      0  0.088     31     11      0     23     42     42      0     0.0  0.000      0      0  0.000  0.000  0.000  0.000  0.000  0.000  0.000    4.65   0.00   0.00      0      0  288.0   0.10   0.14    5.4   0.56    0.06    0.06    0.04    0.01    0.00    0.00        0       2
 1997 196    20    19    5.1      0  0.100     34     13      0     25     47     47      0     0.0  0.000      0      0  0.000  0.000  0.000  0.000  0.000  0.000  0.000    4.69   0.00   0.00      0      0  296.4   0.10   0.15    5.5   0.59    0.07    0.07    0.04    0.01    0.00    0.00        1       2
 1997 197    21    20    5.4      0  0.109     36     15      0     26     51     51      0     0.0  0.000      0      0  0.000  0.000  0.000  0.000  0.000  0.000  0.000    4.71   0.00   0.00      0      0  301.4   0.11   0.16    5.7   0.61    0.07    0.07    0.05    0.01    0.00    0.00        1       2
 1997 198    22    21    5.7      0  0.125     41     18      0     28     59     59      0     0.0  0.000      0      0  0.000  0.000  0.000  0.000  0.000  0.000  0.000    4.63   0.00   0.00      0      0  306.1   0.11   0.17    6.8   0.64    0.07    0.07    0.05    0.01    0.01    0.00        1       2
 1997 199    23    22    6.0      0  0.142     46     22      0     30     68     68      0     0.0  0.000      0      0  0.000  0.000  0.000  0.000  0.000  0.000  0.000    4.57   0.00   0.00      0      0  308.5   0.12   0.18    8.1   0.67    0.08    0.08    0.05    0.02    0.01    0.00        1       2
 1997 200    24    23    6.3      0  0.161     52     26      0     32     78     78      0     0.0  0.000      0      0  0.000  0.000  0.000  0.000  0.000  0.000  0.000    4.52   0.00   0.00      0      0  311.0   0.12   0.19    9.8   0.69    0.08    0.08    0.06    0.02    0.01    0.00        1       3
 1997 201    25    24    6.6      0  0.179     57     30      0     34     87     87      0     0.0  0.000      0      0  0.000  0.000  0.000  0.000  0.000  0.000  0.000    4.58   0.00   0.00      0      0  313.8   0.13   0.20   10.0   0.72    0.09    0.09    0.06    0.02    0.01    0.00        1       3
[...]
 1997 260    56    55   16.1      5  2.250    835    998      6    253   1832   1903     26    24.6  0.003     70     54  0.000  0.000  0.000  0.000  0.000  0.000  0.000    4.63   9.15   0.04      0     70  269.5   0.24   0.50   90.5   0.90    0.56    0.56    0.39    0.18    0.13    0.02       38      37
 1997 261    57    56   16.4      5  2.312    859   1037     10    259   1896   1982     33    29.7  0.005     86     61  0.000  0.000  0.000  0.000  0.000  0.000  0.000    4.61  11.20   0.04      0     86  269.1   0.24   0.50   90.5   0.90    0.57    0.57    0.40    0.19    0.13    0.02       41      40
 1997 262    58    57   16.7      5  2.403    899   1099     14    269   1998   2102     39    34.6  0.006    104     68  0.000  0.000  0.000  0.000  0.000  0.000  0.000    4.60  13.06   0.05      0    104  267.3   0.25   0.50   90.5   0.90    0.59    0.59    0.41    0.20    0.14    0.03       44      42
 1997 263    59    58   17.0      5  2.491    935   1156     18    277   2091   2214     47    38.2  0.008    122     75  0.000  0.000  0.000  0.000  0.000  0.000  0.000    4.59  14.74   0.06      0    122  266.4   0.25   0.50   90.5   0.90    0.61    0.61    0.42    0.20    0.14    0.03       47      45
 1997 264    60    59   17.4      5  2.586    980   1229     23    288   2209   2351     56    41.8  0.010    142     84  0.000  0.000  0.000  0.000  0.000  0.000  0.000    4.57  16.34   0.06      0    142  263.9   0.26   0.50   93.9   0.90    0.63    0.63    0.44    0.21    0.15    0.03       50      47
 1997 265    61    60   17.7      5  2.680   1022   1298     29    298   2320   2484     66    44.6  0.012    164     93  0.000  0.000  0.000  0.000  0.000  0.000  0.000    4.57  17.89   0.07      0    164  262.2   0.26   0.50   93.9   0.90    0.65    0.65    0.46    0.22    0.15    0.03       53      50
 1997 266    62    61   18.0      5  2.718   1037   1327     37    301   2364   2555     77    48.8  0.015    191    100  0.000  0.000  0.000  0.000  0.000  0.000  0.000    4.53  19.64   0.07      0    191  262.1   0.27   0.50   93.9   0.90    0.66    0.66    0.46    0.22    0.15    0.03       56      53
 1997 267    63    62   18.3      5  2.800   1078   1396     46    310   2474   2691     88    52.8  0.017    218    109  0.000  0.000  0.000  0.000  0.000  0.000  0.000    4.52  21.27   0.08      0    218  259.8   0.27   0.50   93.9   0.90    0.68    0.68    0.48    0.23    0.16    0.03       60      55
 1997 268    64    63   18.6      5  2.842   1095   1431     57    314   2526   2775     99    57.9  0.021    249    118  0.000  0.000  0.000  0.000  0.000  0.000  0.000    4.49  22.93   0.09      0    249  259.5   0.28   0.50   93.9   0.90    0.69    0.69    0.48    0.23    0.16    0.03       63      58
 1997 269    65    64   18.9      5  2.910   1129   1491     68    321   2620   2899    109    62.3  0.023    279    128  0.000  0.000  0.000  0.000  0.000  0.000  0.000    4.47  24.38   0.10      0    279  257.9   0.28   0.50   93.9   0.90    0.71    0.71    0.49    0.24    0.17    0.03       67      61
 1997 270    66    65   19.2      5  2.989   1169   1564     80    330   2734   3044    122    65.5  0.026    310    138  0.000  0.000  0.000  0.000  0.000  0.000  0.000    4.46  25.70   0.10      0    310  255.7   0.28   0.50   94.7   0.90    0.73    0.73    0.51    0.25    0.17    0.03       71      64
 1997 271    67    66   19.4      5  3.052   1209   1637     94    340   2846   3192    136    69.0  0.029    346    144  0.000  0.000  0.000  0.000  0.000  0.000  0.000    4.45  27.15   0.11      0    346  252.5   0.29   0.50   94.7   0.90    0.75    0.75    0.52    0.25    0.18    0.03       75      67
 1997 272    68    67   19.7      5  3.123   1246   1708    109    348   2954   3335    151    72.0  0.033    381    154  0.000  0.000  0.000  0.000  0.000  0.000  0.000    4.43  28.51   0.11      0    381  250.7   0.29   0.50   94.7   0.90    0.77    0.77    0.54    0.26    0.18    0.03       79      70
 1997 273    69    68   20.0      5  3.186   1279   1774    126    355   3053   3472    161    77.8  0.036    420    161  0.000  0.000  0.000  0.000  0.000  0.000  0.000    4.41  29.93   0.12      0    420  249.1   0.29   0.50   94.7   0.90    0.78    0.78    0.55    0.26    0.19    0.04       83      73
 1997 274    70    69   20.3      5  3.251   1313   1841    143    362   3154   3612    176    81.3  0.040    458    171  0.000  0.000  0.000  0.000  0.000  0.000  0.000    4.40  31.25   0.13      0    458  247.6   0.30   0.50   94.7   0.90    0.80    0.80    0.56    0.27    0.19    0.04       88      77
 1997 275    71    70   20.6      5  3.315   1348   1913    162    370   3262   3760    190    85.4  0.043    498    180  0.000  0.000  0.000  0.000  0.000  0.000  0.000    4.38  32.53   0.13      0    498  245.8   0.30   0.50   94.7   0.90    0.82    0.82    0.57    0.28    0.19    0.04       93      80
 1997 276    72    71   20.9      5  3.351   1373   1967    185    375   3340   3887    206    90.0  0.048    547    191  0.000  0.000  0.000  0.000  0.000  0.000  0.000    4.35  33.90   0.14      0    547  244.1   0.31   0.50   94.7   0.90    0.83    0.83    0.58    0.28    0.20    0.04       97      83
 1997 277    73    72   21.2      5  3.394   1401   2029    209    381   3429   4025    222    94.5  0.052    596    202  0.000  0.000  0.000  0.000  0.000  0.000  0.000    4.33  35.17   0.15      0    596  242.3   0.31   0.50   94.7   0.90    0.84    0.84    0.59    0.29    0.20    0.04      102      87
 1997 278    74    73   21.4      5  3.402   1405   2047    236    381   3452   4099    232   101.5  0.057    647    212  0.000  0.000  0.000  0.000  0.000  0.000  0.000    4.28  36.40   0.16      0    647  242.1   0.31   0.50   94.7   0.90    0.84    0.84    0.59    0.29    0.20    0.04      107      90
 1997 279    75    74   21.7      5  3.445   1434   2112    262    387   3547   4245    249   105.4  0.062    698    222  0.000  0.000  0.000  0.000  0.000  0.000  0.000    4.26  37.54   0.16      0    698  240.2   0.32   0.50   94.7   0.90    0.86    0.86    0.60    0.29    0.20    0.04      112      93
 1997 280    76    75   21.9      5  3.480   1460   2174    292    393   3634   4390    261   112.0  0.066    755    233  0.000  0.000  0.000  0.000  0.000  0.000  0.000    4.24  38.61   0.17      0    755  238.2   0.32   0.50   94.7   0.90    0.87    0.87    0.61    0.30    0.21    0.04      117      97
 1997 281    77    76   22.2      5  3.481   1460   2185    322    391   3645   4455    275   116.7  0.072    811    243  0.000  0.000  0.000  0.000  0.000  0.000  0.000    4.20  39.66   0.18      0    811  238.4   0.32   0.50   94.7   0.90    0.87    0.87    0.61    0.30    0.21    0.04      122     100
 1997 282    78    77   22.5      5  3.515   1480   2236    353    395   3717   4583    292   120.8  0.077    867    254  0.000  0.000  0.000  0.000  0.000  0.000  0.000    4.17  40.69   0.19      0    867  237.5   0.33   0.50   94.7   0.90    0.88    0.88    0.61    0.30    0.21    0.04      127     104
 1997 283    79    78   22.8      5  3.548   1501   2290    385    398   3790   4713    310   124.2  0.082    923    261  0.000  0.000  0.000  0.000  0.000  0.000  0.000    4.15  41.70   0.20      0    923  236.4   0.33   0.50   94.7   0.90    0.89    0.89    0.62    0.30    0.21    0.04      133     108
 1997 284    80    79   23.0      5  3.579   1521   2345    419    402   3866   4847    327   128.3  0.086    981    271  0.000  0.000  0.000  0.000  0.000  0.000  0.000    4.12  42.71   0.20      0    981  235.3   0.33   0.50   94.7   0.90    0.90    0.90    0.63    0.30    0.21    0.04      138     112
 1997 285    81    80   23.3      5  3.603   1538   2392    455    404   3929   4970    344   132.4  0.092   1041    282  0.000  0.000  0.000  0.000  0.000  0.000  0.000    4.10  43.70   0.21      0   1041  234.3   0.34   0.50   94.7   0.90    0.90    0.90    0.63    0.31    0.22    0.04      143     116
 1997 286    82    81   23.5      5  3.628   1556   2445    493    408   4001   5104    360   136.7  0.097   1103    289  0.000  0.000  0.000  0.000  0.000  0.000  0.000    4.07  44.68   0.22      0   1103  233.1   0.34   0.50   94.7   0.90    0.91    0.91    0.64    0.31    0.22    0.04      149     120
 1997 287    83    82   23.8      5  3.631   1560   2466    534    407   4025   5194    378   141.3  0.103   1169    298  0.000  0.000  0.000  0.000  0.000  0.000  0.000    4.03  45.67   0.23      0   1169  232.8   0.34   0.50   94.7   0.90    0.91    0.91    0.64    0.31    0.22    0.04      154     124
 1997 288    84    83   24.0      5  3.647   1576   2516    578    410   4092   5331    395   146.4  0.108   1239    308  0.000  0.000  0.000  0.000  0.000  0.000  0.000    4.01  46.66   0.23      0   1239  231.4   0.34   0.50   94.7   0.90    0.92    0.92    0.64    0.31    0.22    0.04      159     127
 1997 289    85    84   24.3      5  3.664   1593   2568    623    412   4161   5469    424   146.9  0.114   1308    317  0.000  0.000  0.000  0.000  0.000  0.000  0.000    3.99  47.61   0.24      0   1308  230.0   0.35   0.50   94.7   0.90    0.92    0.92    0.64    0.32    0.22    0.04      165     131
 1997 290    86    85   24.5      5  3.658   1591   2579    670    410   4170   5550    441   151.9  0.121   1380    325  0.000  0.000  0.000  0.000  0.000  0.000  0.000    3.95  48.58   0.25      0   1380  229.9   0.35   0.50   94.7   0.90    0.92    0.92    0.64    0.31    0.22    0.04      171     135
 1997 291    87    86   24.7      5  3.654   1590   2592    717    409   4182   5630    459   156.1  0.127   1449    335  0.000  0.000  0.000  0.000  0.000  0.000  0.000    3.91  49.50   0.26      0   1449  229.8   0.35   0.50   94.7   0.90    0.92    0.92    0.64    0.31    0.22    0.04      176     139
 1997 292    88    87   25.0      5  3.646   1588   2603    772    407   4191   5719    470   164.2  0.135   1528    342  0.000  0.000  0.000  0.000  0.000  0.000  0.000    3.88  50.50   0.27      0   1528  229.6   0.36   0.50   94.7   0.90    0.92    0.92    0.64    0.31    0.22    0.04      181     142
 1997 293    89    88   25.2      5  3.637   1585   2611    825    405   4196   5798    486   169.9  0.142   1601    352  0.000  0.000  0.000  0.000  0.000  0.000  0.000    3.84  51.51   0.28      0   1601  229.5   0.36   0.50   94.7   0.90    0.91    0.91    0.64    0.31    0.22    0.04      187     146
 1997 294    90    89   25.4      5  3.628   1582   2619    879    402   4201   5871    501   175.5  0.150   1670    361  0.000  0.000  0.000  0.000  0.000  0.000  0.000    3.81  52.63   0.28      0   1670  229.4   0.36   0.50   94.7   0.90    0.91    0.91    0.63    0.31    0.22    0.04      192     150
 1997 295    91    90   25.6      5  3.631   1589   2652    935    402   4240   5988    501   186.6  0.156   1748    368  0.000  0.000  0.000  0.000  0.000  0.000  0.000    3.78  53.48   0.29      0   1748  228.6   0.36   0.50   94.7   0.90    0.91    0.91    0.64    0.31    0.22    0.04      196     154
 1997 296    92    91   25.8      5  3.634   1598   2692    991    403   4290   6115    517   191.8  0.162   1825    374  0.000  0.000  0.000  0.000  0.000  0.000  0.000    3.76  54.29   0.30      0   1825  227.4   0.37   0.50   94.7   0.90    0.91    0.91    0.64    0.31    0.22    0.04      202     158
 1997 297    93    92   26.0      5  3.636   1605   2725   1046    403   4330   6230    531   197.1  0.168   1900    381  0.000  0.000  0.000  0.000  0.000  0.000  0.000    3.74  55.07   0.31      0   1900  226.5   0.37   0.50   94.7   0.90    0.91    0.91    0.64    0.31    0.22    0.04      207     161
 1997 298    94    93   26.1      5  3.636   1611   2755   1104    403   4366   6343    546   202.1  0.174   1977    387  0.000  0.000  0.000  0.000  0.000  0.000  0.000    3.71  55.82   0.31      0   1977  225.7   0.37   0.50   94.7   0.90    0.91    0.91    0.64    0.31    0.22    0.04      212     165
 1997 299    95    94   26.3      5  3.638   1618   2791   1161    403   4409   6462    558   207.9  0.180   2053    392  0.000  0.000  0.000  0.000  0.000  0.000  0.000    3.69  56.54   0.32      0   2053  224.8   0.37   0.50   94.7   0.90    0.91    0.91    0.64    0.31    0.22    0.04      217     169
 1997 300    96    95   26.5      5  3.635   1622   2818   1222    403   4441   6573    574   212.8  0.186   2133    399  0.000  0.000  0.000  0.000  0.000  0.000  0.000    3.67  57.29   0.32      0   2133  224.0   0.37   0.50   94.7   0.90    0.91    0.91    0.64    0.31    0.22    0.04      222     173
 1997 301    97    96   26.7      5  3.633   1627   2848   1283    402   4475   6687    589   217.6  0.192   2212    407  0.000  0.000  0.000  0.000  0.000  0.000  0.000    3.64  57.99   0.33      0   2212  223.3   0.38   0.50   94.7   0.90    0.91    0.91    0.64    0.31    0.22    0.04      227     176
 1997 302    98    97   26.9      5  3.630   1631   2876   1344    401   4508   6799    600   223.8  0.198   2291    414  0.000  0.000  0.000  0.000  0.000  0.000  0.000    3.62  58.66   0.34      0   2291  222.5   0.38   0.50   94.7   0.90    0.91    0.91    0.64    0.31    0.22    0.04      232     180
 1997 303    99    98   27.1      5  3.626   1635   2904   1406    401   4539   6909    610   230.4  0.203   2370    420  0.000  0.000  0.000  0.000  0.000  0.000  0.000    3.60  59.31   0.34      0   2370  221.8   0.38   0.50   94.7   0.90    0.91    0.91    0.64    0.31    0.22    0.04      237     184
 1997 304   100    99   27.3      5  3.616   1633   2916   1469    398   4548   6998    622   236.2  0.210   2450    426  0.000  0.000  0.000  0.000  0.000  0.000  0.000    3.57  59.97   0.35      0   2450  221.5   0.38   0.50   94.7   0.90    0.91    0.91    0.63    0.31    0.22    0.04      242     188
 1997 305   101   100   27.4      5  3.610   1635   2942   1533    397   4577   7108    632   242.6  0.216   2531    433  0.000  0.000  0.000  0.000  0.000  0.000  0.000    3.54  60.58   0.36      0   2531  220.8   0.38   0.50   94.7   0.90    0.91    0.91    0.63    0.31    0.22    0.04      247     191
 1997 306   102   101   27.6      5  3.600   1633   2952   1594    395   4585   7191    641   248.5  0.222   2606    440  0.000  0.000  0.000  0.000  0.000  0.000  0.000    3.51  61.15   0.36      0   2606  220.5   0.39   0.50   94.7   0.90    0.90    0.90    0.63    0.31    0.22    0.04      251     195
 1997 307   103   102   27.8      5  3.595   1636   2979   1657    394   4615   7299    666   248.9  0.227   2685    445  0.000  0.000  0.000  0.000  0.000  0.000  0.000    3.49  61.72   0.37      0   2685  219.8   0.39   0.50   94.7   0.90    0.90    0.90    0.63    0.31    0.22    0.04      257     199
 1997 308   104   103   27.8      5  3.590   1639   3006   1718    392   4645   7404    677   253.8  0.232   2759    451  0.000  0.000  0.000  0.000  0.000  0.000  0.000    3.47  62.25   0.37      0   2759  219.1   0.39   0.50   94.7   0.90    0.89    0.90    0.63    0.31    0.22    0.04      261     203
 1997 309   105   104   27.8      5  3.575   1637   3021   1779    398   4658   7492    688   258.7  0.237   2834    456  0.000  0.291  0.000  0.000  0.000  0.000  0.000    3.45  62.77   0.38      0   2834  218.3   0.39   0.50   94.7   0.90    0.88    0.90    0.64    0.32    0.22    0.04      266     208
 1997 310   106   105   27.8      5  3.563   1629   3006   1808    393   4634   7494    698   259.1  0.241   2860    462  0.670  0.780  0.000  0.000  0.000  0.000  0.000    3.43  63.22   0.38      0   2860  218.8   0.39   0.50   90.9   0.90    0.86    0.89    0.63    0.31    0.22    0.04      269     217
 1997 311   107   106   27.8      5  3.555   1621   2991   1831    387   4613   7492    709   258.3  0.244   2880    466  0.716  0.811  0.000  0.000  0.000  0.000  0.000    3.42  63.57   0.38      0   2880  219.3   0.39   0.50   87.3   0.90    0.84    0.88    0.62    0.31    0.22    0.04      271     226
 1997 312   108   107   27.8      5  3.548   1615   2977   1847    382   4592   7487    719   256.8  0.247   2894    472  0.727  0.818  0.000  0.000  0.000  0.000  0.000    3.41  63.83   0.39      0   2894  219.7   0.39   0.50   83.8   0.90    0.83    0.86    0.61    0.31    0.22    0.04      273     235
 1997 313   109   108   27.8      5  3.544   1610   2965   1857    376   4575   7477    729   254.7  0.248   2903    476  0.783  0.856  0.000  0.000  0.000  0.000  0.000    3.41  63.99   0.39      0   2903  220.2   0.39   0.50   80.4   0.90    0.81    0.85    0.60    0.30    0.21    0.04      274     244
 1997 314   110   109   27.8      5  3.495   1584   2949   1863    371   4533   7439    739   252.1  0.250   2906    482  0.823  0.882  0.000  0.000  0.000  0.000  0.000    3.41  64.09   0.39      0   2906  220.6   0.39   0.50   77.2   0.90    0.80    0.84    0.59    0.30    0.21    0.04      301     252
 1997 315   111   110   27.8      5  3.443   1558   2933   1866    365   4491   7400    747   249.7  0.252   2909    481  0.840  0.893  0.000  0.000  0.000  0.000  0.000    3.41  64.15   0.39      0   2909  221.0   0.39   0.50   74.1   0.90    0.78    0.82    0.59    0.30    0.21    0.04      329     261
 1997 316   112   111   27.8      5  3.393   1532   2918   1866    360   4450   7358    756   246.9  0.254   2908    480  0.854  0.903  0.000  0.000  0.000  0.000  0.000    3.42  64.17   0.40      0   2908  221.5   0.39   0.50   71.2   0.90    0.77    0.81    0.58    0.30    0.21    0.04      356     269
 1997 317   113   112   27.8      5  3.340   1505   2903   1866    355   4409   7316    756   246.9  0.255   2908    480  0.864  0.909  0.000  0.000  0.000  0.000  0.000    3.43  64.19   0.40      0   2908  221.9   0.39   0.50   68.3   0.90    0.75    0.80    0.57    0.29    0.21    0.04      385     277
 1997 318   114   113   27.8      5  3.285   1478   2888   1866    350   4366   7273    762   244.9  0.257   2907    479  0.879  0.919  0.000  0.000  0.000  0.000  0.000    3.43  64.20   0.40      0   2907  222.3   0.39   0.50   65.6   0.90    0.74    0.78    0.56    0.29    0.21    0.04      415     284
 1997 319   115   114   27.8      5  3.230   1451   2874   1866    345   4324   7231    767   243.4  0.258   2906    476  0.887  0.925  0.000  0.000  0.000  0.000  0.000    3.44  64.22   0.40      0   2906  222.7   0.39   0.50   63.0   0.90    0.72    0.77    0.55    0.29    0.20    0.04      445     292
 1997 320   116   115   27.8      5  3.175   1423   2860   1866    340   4283   7189    768   242.9  0.260   2905    472  0.885  0.924  0.000  0.000  0.000  0.000  0.000    3.44  64.24   0.40      0   2905  223.0   0.39   0.50   60.4   0.90    0.71    0.76    0.54    0.29    0.20    0.04      475     299
 1997 321   117   116   27.8      5  3.120   1397   2846   1866    336   4242   7147    768   242.9  0.261   2905    466  0.890  0.927  0.000  0.000  0.000  0.000  0.000    3.45  64.25   0.41      0   2905  223.4   0.39   0.50   58.0   0.90    0.70    0.75    0.54    0.28    0.20    0.04      505     306
 1997 322   118   117   27.8      5  3.065   1370   2832   1866    331   4202   7106    768   242.9  0.263   2904    466  0.905  0.937  0.000  0.000  0.000  0.000  0.000    3.46  64.26   0.41      0   2904  223.8   0.39   0.50   55.7   0.90    0.68    0.73    0.53    0.28    0.20    0.04      535     314
 1997 323   119   118   27.8      5  3.011   1343   2819   1866    326   4162   7066    768   242.9  0.264   2904    466  0.898  0.932  0.000  0.000  0.000  0.000  0.000    3.46  64.27   0.41      0   2904  224.1   0.39   0.50   53.5   0.90    0.67    0.72    0.52    0.28    0.20    0.04      564     321
 1997 324   120   119   27.8      8  2.957   1317   2806   1866    321   4123   7026    768   242.9  0.266   2903    466  0.921  0.947  0.000  0.000  0.000  0.000  0.000    3.47  64.29   0.41      0   2903  224.5   0.39   0.50   51.3   0.90    0.66    0.71    0.51    0.27    0.19    0.04      593     327
