*Soil Inorganic Nitrogen daily output file

*DSSAT Cropping System Model Ver. 4.5.1.023 -Stub         NOV 06, 2014; 23:59:41
                                                                                
*RUN   1        : 97 DATE1 CHINESE          CRGRO045 GHNY9701    1              
 MODEL          : CRGRO045 - Peanut                                             
 EXPERIMENT     : GHNY9701 PN 1997 VARIETY X PLANTING DATE EXPERIMENT           
 DATA PATH      :                                                               
 TREATMENT  1   : 97 DATE1 CHINESE          CRGRO045                            
  
!                                                            NO3 (ppm) by soil depth (cm):                   NH4 (ppm) by soil depth (cm):
!                                                            0-5    5-15   15-30   30-45   45-60   60-90     0-5    5-15   15-30   30-45   45-60   60-90
@YEAR DOY   DAS  NAPC  NI#M    NLCC   NIAD   NITD   NHTD    NI1D    NI2D    NI3D    NI4D    NI5D    NI6D    NH1D    NH2D    NH3D    NH4D    NH5D    NH6D    NMNC    NITC    NDNC    NIMC    AMLC   NNMNC    NUCM
 1997 148     0     0     0     0.0    0.3    0.1    0.1    0.01    0.01    0.01    0.01    0.01    0.01    0.01    0.01    0.01    0.01    0.01    0.01    0.00    0.00    0.00    0.00    0.00    0.00    0.00
 1997 149     1     0     0     0.0    0.4    0.2    0.3    0.02    0.01    0.01    0.01    0.01    0.01    0.01    0.02    0.02    0.02    0.03    0.02    0.17    0.02    0.00    0.00    0.00    0.17    0.00
 1997 150     2     0     0     0.0    0.6    0.2    0.4    0.04    0.02    0.01    0.01    0.01    0.01    0.01    0.03    0.03    0.04    0.04    0.03    0.34    0.05    0.00    0.00    0.00    0.34    0.00
 1997 151     3     0     0     0.0    0.8    0.2    0.6    0.05    0.03    0.01    0.02    0.02    0.01    0.01    0.03    0.04    0.05    0.05    0.04    0.52    0.10    0.00    0.00    0.00    0.52    0.00
 1997 152     4     0     0     0.0    1.0    0.3    0.7    0.07    0.04    0.02    0.02    0.02    0.01    0.01    0.04    0.04    0.06    0.07    0.05    0.71    0.15    0.00    0.00    0.00    0.71    0.00
 1997 153     5     0     0     0.0    1.2    0.4    0.8    0.08    0.05    0.02    0.03    0.03    0.01    0.01    0.04    0.05    0.08    0.08    0.06    0.89    0.22    0.00    0.00    0.00    0.89    0.00
 1997 154     6     0     0     0.0    1.4    0.4    0.9    0.10    0.06    0.03    0.03    0.03    0.01    0.01    0.04    0.06    0.09    0.09    0.07    1.08    0.30    0.00    0.00    0.00    1.08    0.00
 1997 155     7     0     0     0.0    1.6    0.5    1.0    0.11    0.07    0.03    0.04    0.04    0.02    0.01    0.04    0.06    0.10    0.10    0.08    1.28    0.39    0.00    0.00    0.00    1.28    0.00
 1997 156     8     0     0     0.0    1.8    0.6    1.1    0.13    0.08    0.04    0.05    0.05    0.02    0.02    0.04    0.07    0.11    0.11    0.08    1.48    0.48    0.00    0.00    0.00    1.48    0.00
 1997 157     9     0     0     0.0    1.9    0.7    1.2    0.15    0.10    0.04    0.06    0.06    0.02    0.01    0.05    0.07    0.12    0.12    0.09    1.67    0.59    0.00    0.00    0.00    1.67    0.00
 1997 158    10     0     0     0.0    2.1    0.8    1.3    0.18    0.11    0.05    0.07    0.07    0.02    0.02    0.05    0.08    0.12    0.13    0.10    1.87    0.69    0.00    0.00    0.00    1.87    0.00
 1997 159    11     0     0     0.0    2.3    0.9    1.4    0.20    0.12    0.06    0.08    0.08    0.03    0.02    0.05    0.08    0.13    0.14    0.11    2.06    0.80    0.00    0.00    0.00    2.06    0.00
 1997 160    12     0     0     0.0    2.5    1.0    1.5    0.23    0.13    0.06    0.09    0.09    0.03    0.02    0.05    0.09    0.14    0.14    0.12    2.25    0.91    0.00    0.00    0.00    2.25    0.00
 1997 161    13     0     0     0.0    2.7    1.2    1.5    0.25    0.14    0.07    0.10    0.10    0.03    0.01    0.05    0.09    0.15    0.15    0.12    2.44    1.03    0.00    0.00    0.00    2.44    0.00
 1997 162    14     0     0     0.0    2.9    1.3    1.6    0.27    0.16    0.08    0.12    0.11    0.03    0.01    0.05    0.09    0.15    0.16    0.13    2.63    1.16    0.00    0.00    0.00    2.63    0.00
 1997 163    15     0     0     0.0    3.1    1.4    1.7    0.29    0.17    0.09    0.13    0.13    0.04    0.02    0.05    0.09    0.16    0.16    0.14    2.83    1.28    0.00    0.00    0.00    2.83    0.00
 1997 164    16     0     0     0.0    3.3    1.6    1.7    0.10    0.13    0.19    0.14    0.14    0.04    0.02    0.05    0.10    0.16    0.17    0.15    3.03    1.42    0.00    0.00    0.00    3.03    0.00
 1997 165    17     0     0     0.0    3.5    1.7    1.9    0.12    0.13    0.20    0.16    0.15    0.04    0.04    0.07    0.11    0.17    0.17    0.15    3.27    1.54    0.00    0.00    0.00    3.27    0.00
 1997 166    18     0     0     0.0    3.8    1.8    2.0    0.17    0.14    0.21    0.17    0.16    0.05    0.03    0.08    0.12    0.17    0.18    0.16    3.51    1.69    0.00    0.00    0.00    3.51    0.00
 1997 167    19     0     0     0.0    4.0    2.0    2.0    0.15    0.17    0.23    0.19    0.17    0.05    0.02    0.09    0.13    0.18    0.18    0.17    3.74    1.85    0.00    0.00    0.00    3.74    0.00
 1997 168    20     0     0     0.0    4.2    2.1    2.1    0.18    0.17    0.22    0.21    0.19    0.06    0.04    0.10    0.14    0.18    0.18    0.17    3.98    1.98    0.00    0.00    0.00    3.98    0.00
 1997 169    21     0     0     0.0    4.5    2.3    2.2    0.26    0.19    0.22    0.22    0.20    0.07    0.02    0.10    0.15    0.18    0.19    0.18    4.21    2.16    0.00    0.00    0.00    4.21    0.00
 1997 170    22     0     0     0.0    4.7    2.5    2.3    0.18    0.23    0.25    0.25    0.22    0.07    0.02    0.10    0.16    0.19    0.19    0.18    4.46    2.34    0.00    0.00    0.00    4.46    0.00
 1997 171    23     0     0     0.0    4.9    2.6    2.4    0.22    0.22    0.24    0.25    0.23    0.09    0.04    0.11    0.17    0.19    0.19    0.19    4.70    2.48    0.00    0.00    0.00    4.70    0.00
 1997 172    24     0     0     0.0    5.2    2.8    2.4    0.32    0.24    0.24    0.26    0.24    0.10    0.02    0.11    0.18    0.20    0.20    0.20    4.95    2.68    0.00    0.00    0.00    4.95    0.00
 1997 173    25     0     0     0.0    5.4    3.0    2.4    0.32    0.29    0.26    0.28    0.25    0.10    0.02    0.11    0.19    0.20    0.20    0.20    5.20    2.89    0.00    0.00    0.00    5.20    0.00
 1997 174    26     0     0     0.0    5.7    3.2    2.5    0.30    0.32    0.28    0.30    0.27    0.11    0.04    0.11    0.19    0.20    0.20    0.21    5.46    3.08    0.00    0.00    0.00    5.46    0.00
 1997 175    27     0     0     0.1    5.9    3.3    2.6    0.34    0.33    0.29    0.31    0.28    0.12    0.05    0.11    0.20    0.20    0.20    0.21    5.70    3.26    0.00    0.00    0.00    5.70    0.00
 1997 176    28     0     0     0.1    6.2    3.5    2.6    0.41    0.34    0.30    0.32    0.29    0.13    0.04    0.11    0.21    0.21    0.20    0.22    5.94    3.46    0.00    0.00    0.00    5.94    0.00
 1997 177    29     0     0     0.1    6.4    3.8    2.6    0.52    0.37    0.32    0.34    0.30    0.13    0.02    0.11    0.21    0.21    0.21    0.22    6.18    3.68    0.00    0.00    0.00    6.18    0.00
 1997 178    30     0     0     0.1    6.6    3.9    2.7    0.54    0.40    0.33    0.35    0.32    0.14    0.02    0.10    0.21    0.21    0.21    0.23    6.42    3.88    0.00    0.00    0.00    6.42    0.01
 1997 179    31     0     0     0.1    6.9    4.1    2.7    0.17    0.34    0.42    0.43    0.36    0.15    0.02    0.10    0.22    0.21    0.21    0.23    6.66    4.08    0.00    0.00    0.00    6.66    0.01
 1997 180    32     0     0     0.2    7.0    4.2    2.8    0.22    0.32    0.38    0.41    0.36    0.18    0.04    0.11    0.23    0.22    0.21    0.24    6.90    4.23    0.00    0.00    0.00    6.90    0.01
 1997 181    33     0     0     0.2    7.2    4.4    2.8    0.27    0.34    0.39    0.43    0.38    0.19    0.02    0.12    0.24    0.22    0.21    0.24    7.15    4.44    0.00    0.00    0.00    7.15    0.01
 1997 182    34     0     0     0.3    7.4    4.5    2.9    0.32    0.35    0.38    0.42    0.38    0.22    0.04    0.12    0.25    0.23    0.21    0.25    7.40    4.63    0.00    0.00    0.00    7.40    0.01
 1997 183    35     0     0     0.3    7.6    4.7    2.9    0.42    0.37    0.39    0.43    0.39    0.22    0.03    0.12    0.25    0.23    0.21    0.25    7.66    4.85    0.00    0.00    0.00    7.66    0.01
 1997 184    36     0     0     0.3    7.9    4.9    3.0    0.49    0.40    0.40    0.44    0.41    0.23    0.02    0.11    0.25    0.23    0.22    0.26    7.90    5.07    0.00    0.00    0.00    7.90    0.01
 1997 185    37     0     0     0.3    8.1    5.1    3.0    0.55    0.43    0.42    0.46    0.42    0.23    0.02    0.11    0.25    0.23    0.22    0.26    8.14    5.29    0.00    0.00    0.00    8.14    0.01
 1997 186    38     0     0     0.3    8.3    5.3    3.0    0.57    0.46    0.44    0.47    0.44    0.24    0.02    0.10    0.25    0.23    0.22    0.27    8.37    5.51    0.00    0.00    0.00    8.37    0.03
 1997 187    39     0     0     0.3    8.5    5.5    3.0    0.58    0.49    0.47    0.49    0.45    0.25    0.02    0.10    0.25    0.23    0.22    0.27    8.60    5.72    0.00    0.00    0.00    8.60    0.04
 1997 188    40     0     0     0.3    8.8    5.7    3.0    0.60    0.51    0.49    0.51    0.47    0.25    0.02    0.10    0.25    0.23    0.22    0.27    8.83    5.93    0.00    0.00    0.00    8.83    0.06
 1997 189    41     0     0     0.3    8.9    5.9    3.1    0.62    0.51    0.51    0.52    0.48    0.26    0.02    0.10    0.25    0.23    0.22    0.28    9.06    6.14    0.00    0.00    0.00    9.06    0.11
 1997 190    42     0     0     0.3    9.1    6.1    3.1    0.64    0.54    0.53    0.53    0.50    0.26    0.02    0.10    0.25    0.23    0.22    0.28    9.30    6.36    0.00    0.00    0.00    9.30    0.14
 1997 191    43     0     0     0.3    9.3    6.2    3.1    0.26    0.63    0.59    0.54    0.51    0.27    0.01    0.10    0.25    0.23    0.22    0.28    9.53    6.58    0.00    0.00    0.00    9.53    0.26
 1997 192    44     0     0     0.3    9.3    6.2    3.1    0.29    0.57    0.58    0.57    0.53    0.27    0.04    0.11    0.25    0.23    0.22    0.29    9.77    6.78    0.00    0.00    0.00    9.77    0.42
 1997 193    45     0     0     0.3    9.4    6.2    3.2    0.34    0.54    0.57    0.57    0.53    0.28    0.04    0.11    0.25    0.23    0.23    0.29   10.02    7.00    0.00    0.00    0.00   10.02    0.62
 1997 194    46     0     0     0.3    9.4    6.2    3.2    0.43    0.51    0.56    0.57    0.53    0.28    0.04    0.11    0.25    0.23    0.23    0.30   10.26    7.23    0.00    0.00    0.00   10.26    0.84
 1997 195    47     0     0     0.3    9.5    6.3    3.2    0.27    0.43    0.60    0.63    0.56    0.29    0.02    0.11    0.25    0.23    0.23    0.30   10.50    7.47    0.00    0.00    0.00   10.50    0.98
 1997 196    48     0     0     0.4    9.5    6.2    3.2    0.13    0.24    0.41    0.56    0.67    0.43    0.04    0.12    0.26    0.23    0.23    0.30   10.75    7.64    0.00    0.00    0.00   10.75    1.10
 1997 197    49     0     0     0.6    9.6    6.2    3.4    0.15    0.24    0.39    0.54    0.64    0.46    0.05    0.13    0.27    0.24    0.24    0.31   10.98    7.76    0.00    0.00    0.00   10.98    1.11
 1997 198    50     0     0     1.1    9.3    5.8    3.4    0.18    0.25    0.37    0.49    0.56    0.45    0.05    0.14    0.28    0.25    0.25    0.31   11.22    7.91    0.00    0.00    0.00   11.22    1.13
 1997 199    51     0     0     1.3    9.3    5.8    3.5    0.24    0.28    0.37    0.47    0.52    0.45    0.04    0.13    0.29    0.26    0.25    0.31   11.46    8.12    0.00    0.00    0.00   11.46    1.15
 1997 200    52     0     0     1.4    9.4    5.9    3.5    0.31    0.31    0.38    0.47    0.50    0.45    0.02    0.13    0.29    0.26    0.25    0.32   11.70    8.35    0.01    0.00    0.00   11.70    1.18
 1997 201    53     0     0     1.5    9.6    6.1    3.5    0.37    0.35    0.40    0.48    0.51    0.46    0.03    0.12    0.29    0.26    0.25    0.32   11.94    8.58    0.01    0.00    0.00   11.94    1.18
 1997 202    54     0     0     1.5    9.8    6.3    3.5    0.42    0.38    0.42    0.49    0.52    0.46    0.03    0.12    0.29    0.26    0.25    0.32   12.17    8.80    0.01    0.00    0.00   12.17    1.18
 1997 203    55     0     0     1.5   10.0    6.5    3.5    0.47    0.41    0.45    0.51    0.52    0.47    0.03    0.11    0.28    0.26    0.25    0.33   12.41    9.04    0.01    0.00    0.00   12.41    1.22
 1997 204    56     0     0     1.5   10.1    6.6    3.5    0.52    0.46    0.46    0.51    0.51    0.47    0.03    0.11    0.28    0.26    0.25    0.33   12.65    9.29    0.01    0.00    0.00   12.65    1.31
 1997 205    57     0     0     1.5   10.3    6.8    3.5    0.50    0.50    0.49    0.52    0.51    0.48    0.04    0.11    0.28    0.26    0.25    0.33   12.90    9.53    0.01    0.00    0.00   12.90    1.40
 1997 206    58     0     0     1.5   10.4    6.9    3.5    0.57    0.53    0.51    0.52    0.51    0.48    0.04    0.10    0.28    0.25    0.25    0.33   13.14    9.78    0.01    0.00    0.00   13.14    1.49
 1997 207    59     0     0     1.5   10.5    7.0    3.5    0.59    0.51    0.53    0.52    0.51    0.49    0.02    0.10    0.27    0.25    0.25    0.34   13.40   10.05    0.01    0.00    0.00   13.40    1.71
 1997 208    60     0     0     1.5   10.5    7.1    3.5    0.56    0.54    0.52    0.52    0.52    0.50    0.02    0.10    0.27    0.25    0.25    0.34   13.65   10.31    0.01    0.00    0.00   13.65    1.91
 1997 209    61     0     0     1.5   10.5    7.1    3.5    0.57    0.53    0.52    0.52    0.53    0.51    0.02    0.09    0.27    0.25    0.25    0.34   13.90   10.58    0.01    0.00    0.00   13.90    2.13
 1997 210    62     0     0     1.5   10.6    7.2    3.4    0.56    0.55    0.52    0.52    0.53    0.51    0.02    0.08    0.26    0.25    0.24    0.34   14.14   10.85    0.01    0.00    0.00   14.14    2.32
 1997 211    63     0     0     1.5   10.6    7.2    3.4    0.26    0.59    0.56    0.52    0.54    0.52    0.03    0.08    0.25    0.24    0.24    0.35   14.38   11.10    0.01    0.00    0.00   14.38    2.59
 1997 212    64     0     0     1.5   10.5    7.1    3.4    0.27    0.50    0.57    0.53    0.54    0.52    0.05    0.09    0.25    0.24    0.24    0.35   14.64   11.33    0.01    0.00    0.00   14.64    2.89
 1997 213    65     0     0     1.5   10.6    7.2    3.4    0.31    0.52    0.56    0.53    0.55    0.53    0.04    0.10    0.25    0.24    0.24    0.35   14.89   11.58    0.01    0.00    0.00   14.89    3.07
 1997 214    66     0     0     1.5   10.5    7.1    3.5    0.35    0.44    0.55    0.53    0.55    0.53    0.04    0.10    0.25    0.24    0.24    0.35   15.13   11.81    0.01    0.00    0.00   15.13    3.39
 1997 215    67     0     0     1.5   10.6    7.1    3.5    0.44    0.47    0.54    0.53    0.55    0.53    0.02    0.10    0.25    0.24    0.24    0.36   15.36   12.05    0.01    0.00    0.00   15.36    3.55
 1997 216    68     0     0     1.5   10.7    7.2    3.5    0.47    0.50    0.53    0.53    0.56    0.53    0.03    0.10    0.25    0.24    0.24    0.36   15.60   12.28    0.01    0.00    0.00   15.60    3.69
 1997 217    69     0     0     1.5   10.8    7.3    3.4    0.13    0.31    0.59    0.70    0.57    0.54    0.02    0.10    0.24    0.23    0.24    0.36   15.83   12.52    0.01    0.00    0.00   15.83    3.83
 1997 218    70     0     0     1.5   10.8    7.3    3.5    0.15    0.30    0.51    0.63    0.63    0.57    0.04    0.12    0.26    0.23    0.24    0.36   16.07   12.69    0.01    0.00    0.00   16.07    4.02
 1997 219    71     0     0     1.7   10.6    7.1    3.6    0.18    0.31    0.46    0.59    0.61    0.58    0.04    0.12    0.27    0.23    0.24    0.36   16.33   12.91    0.01    0.00    0.00   16.33    4.29
 1997 220    72     0     0     1.7   10.7    7.1    3.6    0.24    0.33    0.46    0.57    0.60    0.58    0.04    0.12    0.27    0.23    0.24    0.37   16.59   13.15    0.01    0.00    0.00   16.59    4.46
 1997 221    73     0     0     1.7   10.8    7.2    3.6    0.31    0.37    0.48    0.55    0.59    0.58    0.02    0.12    0.27    0.23    0.24    0.37   16.84   13.39    0.01    0.00    0.00   16.84    4.63
 1997 222    74     0     0     1.7   10.9    7.3    3.6    0.37    0.41    0.50    0.54    0.58    0.59    0.03    0.12    0.27    0.23    0.24    0.37   17.09   13.64    0.01    0.00    0.00   17.09    4.78
 1997 223    75     0     0     1.7   11.0    7.4    3.6    0.41    0.44    0.53    0.53    0.58    0.59    0.02    0.11    0.27    0.23    0.24    0.37   17.35   13.89    0.01    0.00    0.00   17.35    4.93
 1997 224    76     0     0     1.7   11.0    7.4    3.6    0.44    0.47    0.50    0.52    0.58    0.59    0.02    0.11    0.27    0.23    0.24    0.37   17.60   14.15    0.01    0.00    0.00   17.60    5.19
 1997 225    77     0     0     1.7   11.1    7.5    3.6    0.48    0.50    0.52    0.51    0.58    0.60    0.02    0.10    0.27    0.23    0.24    0.38   17.85   14.41    0.01    0.00    0.00   17.85    5.32
 1997 226    78     0     0     1.7   11.1    7.5    3.6    0.50    0.53    0.50    0.51    0.58    0.60    0.01    0.10    0.27    0.23    0.24    0.38   18.10   14.66    0.01    0.00    0.00   18.10    5.55
 1997 227    79     0     0     1.7   11.2    7.7    3.6    0.53    0.52    0.53    0.53    0.58    0.60    0.01    0.09    0.27    0.23    0.24    0.38   18.34   14.90    0.01    0.00    0.00   18.34    5.67
 1997 228    80     0     0     1.7   11.2    7.6    3.6    0.51    0.51    0.52    0.52    0.58    0.61    0.03    0.09    0.27    0.23    0.24    0.38   18.58   15.14    0.01    0.00    0.00   18.58    5.95
 1997 229    81     0     0     1.7   11.2    7.6    3.6    0.55    0.51    0.51    0.52    0.59    0.61    0.02    0.08    0.26    0.23    0.24    0.38   18.82   15.39    0.01    0.00    0.00   18.82    6.17
 1997 230    82     0     0     1.7   11.3    7.7    3.5    0.12    0.28    0.65    0.66    0.60    0.61    0.02    0.08    0.26    0.23    0.24    0.38   19.05   15.64    0.01    0.00    0.00   19.05    6.31
 1997 231    83     0     0     1.8   11.3    7.6    3.6    0.14    0.27    0.57    0.61    0.64    0.64    0.04    0.10    0.27    0.23    0.24    0.39   19.31   15.82    0.01    0.00    0.00   19.31    6.53
 1997 232    84     0     0     1.9   11.2    7.5    3.7    0.19    0.29    0.51    0.59    0.63    0.65    0.04    0.11    0.28    0.23    0.24    0.39   19.58   16.06    0.01    0.00    0.00   19.58    6.82
 1997 233    85     0     0     1.9   11.3    7.6    3.7    0.16    0.29    0.53    0.60    0.63    0.65    0.02    0.11    0.28    0.23    0.24    0.39   19.85   16.33    0.01    0.00    0.00   19.85    7.00
 1997 234    86     0     0     2.1   11.0    7.3    3.7    0.19    0.29    0.46    0.56    0.61    0.66    0.04    0.12    0.29    0.24    0.24    0.39   20.12   16.54    0.01    0.00    0.00   20.12    7.28
 1997 235    87     0     0     2.1   11.1    7.4    3.7    0.25    0.32    0.47    0.54    0.60    0.66    0.04    0.12    0.29    0.24    0.24    0.39   20.40   16.81    0.01    0.00    0.00   20.40    7.45
 1997 236    88     0     0     2.1   11.2    7.5    3.7    0.31    0.35    0.49    0.53    0.59    0.67    0.02    0.12    0.29    0.24    0.23    0.39   20.67   17.10    0.01    0.00    0.00   20.67    7.62
 1997 237    89     0     0     2.1   11.3    7.6    3.7    0.23    0.40    0.53    0.53    0.59    0.67    0.03    0.11    0.28    0.23    0.23    0.39   20.94   17.39    0.01    0.00    0.00   20.94    7.78
 1997 238    90     0     0     2.2   11.2    7.5    3.7    0.27    0.40    0.48    0.52    0.59    0.68    0.04    0.12    0.28    0.23    0.23    0.39   21.22   17.64    0.01    0.00    0.00   21.22    8.10
 1997 239    91     0     0     2.2   11.3    7.6    3.7    0.26    0.43    0.52    0.52    0.58    0.68    0.04    0.12    0.28    0.23    0.23    0.40   21.49   17.93    0.01    0.00    0.00   21.49    8.26
 1997 240    92     0     0     2.2   11.3    7.6    3.7    0.30    0.44    0.47    0.51    0.58    0.69    0.05    0.12    0.28    0.23    0.23    0.40   21.76   18.20    0.01    0.00    0.00   21.76    8.57
 1997 241    93     0     0     2.2   11.5    7.8    3.7    0.23    0.46    0.52    0.54    0.59    0.69    0.04    0.12    0.27    0.23    0.23    0.40   22.03   18.48    0.01    0.00    0.00   22.03    8.66
 1997 242    94     0     0     2.3   11.3    7.6    3.7    0.28    0.44    0.47    0.52    0.57    0.69    0.05    0.12    0.28    0.23    0.23    0.40   22.30   18.72    0.01    0.00    0.00   22.30    8.96
 1997 243    95     0     0     2.3   11.4    7.7    3.7    0.36    0.46    0.50    0.51    0.57    0.69    0.04    0.12    0.27    0.23    0.23    0.40   22.57   19.00    0.01    0.00    0.00   22.57    9.11
 1997 244    96     0     0     2.3   11.6    7.9    3.7    0.45    0.50    0.52    0.53    0.56    0.70    0.02    0.11    0.27    0.23    0.23    0.40   22.83   19.29    0.01    0.00    0.00   22.83    9.19
 1997 245    97     0     0     2.3   11.6    7.9    3.7    0.49    0.54    0.49    0.52    0.56    0.70    0.03    0.11    0.27    0.23    0.23    0.40   23.10   19.56    0.01    0.00    0.00   23.10    9.45
 1997 246    98     0     0     2.3   11.6    8.0    3.7    0.53    0.49    0.52    0.52    0.56    0.70    0.02    0.10    0.27    0.23    0.23    0.40   23.36   19.84    0.01    0.00    0.00   23.36    9.68
 1997 247    99     0     0     2.3   11.6    8.0    3.7    0.51    0.54    0.50    0.51    0.57    0.71    0.02    0.10    0.26    0.23    0.23    0.40   23.62   20.10    0.01    0.00    0.00   23.62    9.94
 1997 248   100     0     0     2.3   11.7    8.0    3.7    0.25    0.50    0.60    0.52    0.57    0.71    0.03    0.10    0.26    0.23    0.23    0.40   23.87   20.35    0.01    0.00    0.00   23.87   10.15

*DSSAT Cropping System Model Ver. 4.5.1.023 -Stub         NOV 06, 2014; 23:59:41
                                                                                
*RUN   2        : 97 DATE1 F-MIX            CRGRO045 GHNY9701    2              
 MODEL          : CRGRO045 - Peanut                                             
 EXPERIMENT     : GHNY9701 PN 1997 VARIETY X PLANTING DATE EXPERIMENT           
 DATA PATH      :                                                               
 TREATMENT  2   : 97 DATE1 F-MIX            CRGRO045                            
  
!                                                            NO3 (ppm) by soil depth (cm):                   NH4 (ppm) by soil depth (cm):
!                                                            0-5    5-15   15-30   30-45   45-60   60-90     0-5    5-15   15-30   30-45   45-60   60-90
@YEAR DOY   DAS  NAPC  NI#M    NLCC   NIAD   NITD   NHTD    NI1D    NI2D    NI3D    NI4D    NI5D    NI6D    NH1D    NH2D    NH3D    NH4D    NH5D    NH6D    NMNC    NITC    NDNC    NIMC    AMLC   NNMNC    NUCM
 1997 148     0     0     0     0.0    0.3    0.1    0.1    0.01    0.01    0.01    0.01    0.01    0.01    0.01    0.01    0.01    0.01    0.01    0.01    0.00    0.00    0.00    0.00    0.00    0.00    0.00
 1997 149     1     0     0     0.0    0.4    0.2    0.3    0.02    0.01    0.01    0.01    0.01    0.01    0.01    0.02    0.02    0.02    0.03    0.02    0.17    0.02    0.00    0.00    0.00    0.17    0.00
 1997 150     2     0     0     0.0    0.6    0.2    0.4    0.04    0.02    0.01    0.01    0.01    0.01    0.01    0.03    0.03    0.04    0.04    0.03    0.34    0.05    0.00    0.00    0.00    0.34    0.00
 1997 151     3     0     0     0.0    0.8    0.2    0.6    0.05    0.03    0.01    0.02    0.02    0.01    0.01    0.03    0.04    0.05    0.05    0.04    0.52    0.10    0.00    0.00    0.00    0.52    0.00
 1997 152     4     0     0     0.0    1.0    0.3    0.7    0.07    0.04    0.02    0.02    0.02    0.01    0.01    0.04    0.04    0.06    0.07    0.05    0.71    0.15    0.00    0.00    0.00    0.71    0.00
 1997 153     5     0     0     0.0    1.2    0.4    0.8    0.08    0.05    0.02    0.03    0.03    0.01    0.01    0.04    0.05    0.08    0.08    0.06    0.89    0.22    0.00    0.00    0.00    0.89    0.00
 1997 154     6     0     0     0.0    1.4    0.4    0.9    0.10    0.06    0.03    0.03    0.03    0.01    0.01    0.04    0.06    0.09    0.09    0.07    1.08    0.30    0.00    0.00    0.00    1.08    0.00
 1997 155     7     0     0     0.0    1.6    0.5    1.0    0.11    0.07    0.03    0.04    0.04    0.02    0.01    0.04    0.06    0.10    0.10    0.08    1.28    0.39    0.00    0.00    0.00    1.28    0.00
 1997 156     8     0     0     0.0    1.8    0.6    1.1    0.13    0.08    0.04    0.05    0.05    0.02    0.02    0.04    0.07    0.11    0.11    0.08    1.48    0.48    0.00    0.00    0.00    1.48    0.00
 1997 157     9     0     0     0.0    1.9    0.7    1.2    0.15    0.10    0.04    0.06    0.06    0.02    0.01    0.05    0.07    0.12    0.12    0.09    1.67    0.59    0.00    0.00    0.00    1.67    0.00
 1997 158    10     0     0     0.0    2.1    0.8    1.3    0.18    0.11    0.05    0.07    0.07    0.02    0.02    0.05    0.08    0.12    0.13    0.10    1.87    0.69    0.00    0.00    0.00    1.87    0.00
 1997 159    11     0     0     0.0    2.3    0.9    1.4    0.20    0.12    0.06    0.08    0.08    0.03    0.02    0.05    0.08    0.13    0.14    0.11    2.06    0.80    0.00    0.00    0.00    2.06    0.00
 1997 160    12     0     0     0.0    2.5    1.0    1.5    0.23    0.13    0.06    0.09    0.09    0.03    0.02    0.05    0.09    0.14    0.14    0.12    2.25    0.91    0.00    0.00    0.00    2.25    0.00
 1997 161    13     0     0     0.0    2.7    1.2    1.5    0.25    0.14    0.07    0.10    0.10    0.03    0.01    0.05    0.09    0.15    0.15    0.12    2.44    1.03    0.00    0.00    0.00    2.44    0.00
 1997 162    14     0     0     0.0    2.9    1.3    1.6    0.26    0.16    0.08    0.12    0.11    0.03    0.01    0.05    0.09    0.15    0.16    0.13    2.63    1.16    0.00    0.00    0.00    2.63    0.00
 1997 163    15     0     0     0.0    3.1    1.4    1.7    0.29    0.17    0.09    0.13    0.13    0.04    0.02    0.05    0.09    0.16    0.16    0.14    2.83    1.28    0.00    0.00    0.00    2.83    0.00
 1997 164    16     0     0     0.0    3.3    1.6    1.7    0.10    0.13    0.19    0.14    0.14    0.04    0.02    0.05    0.10    0.16    0.17    0.15    3.03    1.42    0.00    0.00    0.00    3.03    0.00
 1997 165    17     0     0     0.0    3.5    1.7    1.9    0.12    0.13    0.20    0.16    0.15    0.04    0.04    0.07    0.11    0.17    0.17    0.15    3.27    1.54    0.00    0.00    0.00    3.27    0.00
 1997 166    18     0     0     0.0    3.8    1.8    2.0    0.17    0.14    0.21    0.17    0.16    0.05    0.03    0.08    0.12    0.17    0.18    0.16    3.51    1.69    0.00    0.00    0.00    3.51    0.00
 1997 167    19     0     0     0.0    4.0    2.0    2.0    0.15    0.17    0.23    0.19    0.17    0.05    0.02    0.09    0.13    0.18    0.18    0.17    3.74    1.85    0.00    0.00    0.00    3.74    0.00
 1997 168    20     0     0     0.0    4.2    2.1    2.1    0.18    0.17    0.22    0.21    0.19    0.06    0.04    0.10    0.14    0.18    0.18    0.17    3.98    1.98    0.00    0.00    0.00    3.98    0.00
 1997 169    21     0     0     0.0    4.5    2.3    2.2    0.26    0.19    0.22    0.22    0.20    0.07    0.02    0.10    0.15    0.18    0.19    0.18    4.22    2.16    0.00    0.00    0.00    4.22    0.00
 1997 170    22     0     0     0.0    4.7    2.5    2.3    0.18    0.23    0.25    0.25    0.22    0.07    0.02    0.10    0.16    0.19    0.19    0.18    4.46    2.34    0.00    0.00    0.00    4.46    0.00
 1997 171    23     0     0     0.0    4.9    2.6    2.4    0.22    0.22    0.24    0.25    0.23    0.09    0.04    0.11    0.17    0.19    0.19    0.19    4.70    2.48    0.00    0.00    0.00    4.70    0.00
 1997 172    24     0     0     0.0    5.2    2.8    2.4    0.32    0.24    0.24    0.26    0.24    0.10    0.02    0.11    0.18    0.20    0.20    0.20    4.95    2.68    0.00    0.00    0.00    4.95    0.00
 1997 173    25     0     0     0.0    5.4    3.0    2.4    0.32    0.29    0.26    0.28    0.25    0.11    0.02    0.11    0.19    0.20    0.20    0.20    5.21    2.89    0.00    0.00    0.00    5.21    0.00
 1997 174    26     0     0     0.0    5.7    3.2    2.5    0.30    0.32    0.28    0.30    0.27    0.11    0.04    0.11    0.19    0.20    0.20    0.21    5.46    3.09    0.00    0.00    0.00    5.46    0.00
 1997 175    27     0     0     0.1    5.9    3.3    2.6    0.34    0.33    0.29    0.31    0.28    0.12    0.05    0.11    0.20    0.20    0.20    0.21    5.71    3.26    0.00    0.00    0.00    5.71    0.00
 1997 176    28     0     0     0.1    6.2    3.5    2.6    0.41    0.34    0.30    0.32    0.29    0.13    0.04    0.11    0.21    0.21    0.20    0.22    5.94    3.46    0.00    0.00    0.00    5.94    0.00
 1997 177    29     0     0     0.1    6.4    3.8    2.6    0.53    0.37    0.32    0.34    0.30    0.13    0.02    0.11    0.21    0.21    0.21    0.22    6.18    3.68    0.00    0.00    0.00    6.18    0.00
 1997 178    30     0     0     0.1    6.6    4.0    2.7    0.54    0.40    0.33    0.35    0.32    0.14    0.02    0.10    0.21    0.21    0.21    0.23    6.42    3.88    0.00    0.00    0.00    6.42    0.01
 1997 179    31     0     0     0.1    6.9    4.2    2.7    0.18    0.34    0.42    0.43    0.36    0.15    0.02    0.10    0.22    0.21    0.21    0.23    6.66    4.09    0.00    0.00    0.00    6.66    0.02
 1997 180    32     0     0     0.2    7.0    4.2    2.8    0.22    0.33    0.38    0.41    0.36    0.18    0.04    0.11    0.23    0.22    0.21    0.24    6.90    4.23    0.00    0.00    0.00    6.90    0.02
 1997 181    33     0     0     0.2    7.2    4.4    2.8    0.28    0.34    0.39    0.43    0.38    0.19    0.02    0.12    0.24    0.22    0.21    0.24    7.16    4.44    0.00    0.00    0.00    7.16    0.02
 1997 182    34     0     0     0.3    7.4    4.5    2.9    0.32    0.35    0.38    0.42    0.38    0.22    0.04    0.12    0.25    0.23    0.21    0.25    7.41    4.63    0.00    0.00    0.00    7.41    0.02
 1997 183    35     0     0     0.3    7.6    4.7    2.9    0.42    0.37    0.39    0.43    0.39    0.22    0.03    0.12    0.25    0.23    0.21    0.25    7.66    4.85    0.00    0.00    0.00    7.66    0.02
 1997 184    36     0     0     0.3    7.9    4.9    3.0    0.49    0.40    0.40    0.44    0.41    0.23    0.02    0.11    0.25    0.23    0.22    0.26    7.90    5.07    0.00    0.00    0.00    7.90    0.02
 1997 185    37     0     0     0.3    8.1    5.1    3.0    0.56    0.43    0.42    0.45    0.42    0.23    0.02    0.11    0.25    0.23    0.22    0.26    8.14    5.29    0.00    0.00    0.00    8.14    0.02
 1997 186    38     0     0     0.3    8.3    5.3    3.0    0.61    0.46    0.44    0.47    0.43    0.24    0.02    0.10    0.25    0.23    0.22    0.27    8.38    5.50    0.00    0.00    0.00    8.38    0.03
 1997 187    39     0     0     0.3    8.5    5.5    3.0    0.62    0.49    0.46    0.48    0.45    0.24    0.02    0.10    0.25    0.23    0.22    0.27    8.61    5.72    0.00    0.00    0.00    8.61    0.05
 1997 188    40     0     0     0.3    8.8    5.7    3.0    0.63    0.51    0.48    0.50    0.46    0.25    0.02    0.10    0.25    0.23    0.22    0.27    8.84    5.93    0.00    0.00    0.00    8.84    0.06
 1997 189    41     0     0     0.3    8.9    5.9    3.1    0.65    0.51    0.50    0.52    0.48    0.26    0.02    0.10    0.25    0.23    0.22    0.28    9.07    6.14    0.00    0.00    0.00    9.07    0.11
 1997 190    42     0     0     0.3    9.1    6.0    3.1    0.68    0.51    0.53    0.53    0.49    0.26    0.02    0.10    0.25    0.23    0.22    0.28    9.30    6.36    0.00    0.00    0.00    9.30    0.17
 1997 191    43     0     0     0.3    9.2    6.2    3.1    0.27    0.62    0.59    0.54    0.51    0.27    0.02    0.10    0.25    0.23    0.22    0.28    9.54    6.58    0.00    0.00    0.00    9.54    0.28
 1997 192    44     0     0     0.3    9.4    6.2    3.1    0.31    0.57    0.58    0.57    0.52    0.27    0.04    0.11    0.25    0.23    0.22    0.29    9.78    6.78    0.00    0.00    0.00    9.78    0.41
 1997 193    45     0     0     0.3    9.4    6.3    3.2    0.36    0.54    0.58    0.58    0.53    0.28    0.04    0.11    0.25    0.23    0.23    0.29   10.02    7.00    0.00    0.00    0.00   10.02    0.59
 1997 194    46     0     0     0.3    9.5    6.3    3.2    0.44    0.51    0.57    0.58    0.53    0.28    0.04    0.11    0.25    0.23    0.23    0.30   10.26    7.23    0.00    0.00    0.00   10.26    0.79
 1997 195    47     0     0     0.3    9.6    6.4    3.2    0.28    0.44    0.61    0.64    0.56    0.29    0.02    0.11    0.25    0.23    0.23    0.30   10.50    7.47    0.00    0.00    0.00   10.50    0.92
 1997 196    48     0     0     0.4    9.6    6.3    3.2    0.13    0.25    0.42    0.57    0.68    0.43    0.04    0.12    0.26    0.23    0.23    0.30   10.75    7.64    0.00    0.00    0.00   10.75    1.02
 1997 197    49     0     0     0.6    9.6    6.3    3.4    0.15    0.25    0.40    0.55    0.65    0.46    0.05    0.13    0.27    0.24    0.24    0.31   10.98    7.76    0.00    0.00    0.00   10.98    1.04
 1997 198    50     0     0     1.1    9.4    5.9    3.4    0.18    0.25    0.37    0.50    0.57    0.46    0.05    0.14    0.28    0.25    0.24    0.31   11.22    7.91    0.00    0.00    0.00   11.22    1.06
 1997 199    51     0     0     1.3    9.3    5.9    3.5    0.24    0.28    0.37    0.48    0.53    0.46    0.04    0.13    0.29    0.26    0.25    0.31   11.46    8.12    0.00    0.00    0.00   11.46    1.07
 1997 200    52     0     0     1.4    9.4    5.9    3.5    0.31    0.32    0.39    0.48    0.51    0.46    0.02    0.12    0.29    0.26    0.25    0.32   11.70    8.35    0.01    0.00    0.00   11.70    1.09
 1997 201    53     0     0     1.5    9.6    6.1    3.5    0.37    0.35    0.41    0.49    0.52    0.46    0.03    0.12    0.29    0.26    0.25    0.32   11.94    8.58    0.01    0.00    0.00   11.94    1.09
 1997 202    54     0     0     1.5    9.8    6.3    3.5    0.42    0.38    0.43    0.50    0.51    0.47    0.03    0.11    0.29    0.26    0.25    0.32   12.17    8.81    0.01    0.00    0.00   12.17    1.13
 1997 203    55     0     0     1.5   10.0    6.5    3.5    0.46    0.41    0.45    0.52    0.51    0.47    0.03    0.11    0.28    0.26    0.25    0.33   12.41    9.05    0.01    0.00    0.00   12.41    1.16
 1997 204    56     0     0     1.5   10.2    6.7    3.5    0.51    0.46    0.47    0.51    0.51    0.48    0.03    0.11    0.28    0.26    0.25    0.33   12.65    9.29    0.01    0.00    0.00   12.65    1.25
 1997 205    57     0     0     1.5   10.3    6.8    3.5    0.49    0.50    0.49    0.51    0.51    0.48    0.04    0.11    0.28    0.26    0.25    0.33   12.89    9.53    0.01    0.00    0.00   12.89    1.39
 1997 206    58     0     0     1.5   10.4    6.9    3.5    0.55    0.53    0.51    0.51    0.51    0.49    0.04    0.10    0.28    0.25    0.25    0.33   13.14    9.78    0.01    0.00    0.00   13.14    1.47
 1997 207    59     0     0     1.5   10.5    7.0    3.5    0.56    0.51    0.50    0.53    0.52    0.50    0.02    0.10    0.27    0.25    0.25    0.34   13.39   10.05    0.01    0.00    0.00   13.39    1.72
 1997 208    60     0     0     1.5   10.6    7.1    3.5    0.54    0.54    0.53    0.53    0.52    0.50    0.02    0.10    0.27    0.25    0.25    0.34   13.64   10.31    0.01    0.00    0.00   13.64    1.84
 1997 209    61     0     0     1.5   10.6    7.2    3.4    0.55    0.53    0.53    0.53    0.53    0.51    0.02    0.09    0.27    0.25    0.24    0.34   13.89   10.58    0.01    0.00    0.00   13.89    2.07
 1997 210    62     0     0     1.5   10.6    7.2    3.4    0.54    0.55    0.53    0.53    0.53    0.52    0.02    0.08    0.26    0.25    0.24    0.34   14.13   10.84    0.01    0.00    0.00   14.13    2.28
 1997 211    63     0     0     1.5   10.6    7.2    3.4    0.25    0.59    0.56    0.53    0.54    0.52    0.03    0.08    0.25    0.24    0.24    0.35   14.37   11.10    0.01    0.00    0.00   14.37    2.55
 1997 212    64     0     0     1.5   10.5    7.1    3.4    0.26    0.49    0.58    0.53    0.54    0.52    0.05    0.09    0.25    0.24    0.24    0.35   14.63   11.33    0.01    0.00    0.00   14.63    2.86
 1997 213    65     0     0     1.5   10.6    7.2    3.4    0.29    0.51    0.57    0.54    0.55    0.53    0.05    0.10    0.25    0.24    0.24    0.35   14.88   11.57    0.01    0.00    0.00   14.88    3.04
 1997 214    66     0     0     1.5   10.5    7.1    3.5    0.33    0.43    0.56    0.53    0.55    0.53    0.04    0.10    0.25    0.24    0.24    0.35   15.12   11.80    0.01    0.00    0.00   15.12    3.38
 1997 215    67     0     0     1.5   10.6    7.1    3.4    0.41    0.46    0.54    0.53    0.55    0.53    0.02    0.10    0.25    0.24    0.24    0.36   15.35   12.04    0.01    0.00    0.00   15.35    3.54
 1997 216    68     0     0     1.5   10.7    7.2    3.4    0.44    0.49    0.54    0.54    0.56    0.53    0.03    0.10    0.24    0.23    0.24    0.36   15.58   12.27    0.01    0.00    0.00   15.58    3.69
 1997 217    69     0     0     1.5   10.8    7.3    3.4    0.13    0.30    0.59    0.71    0.56    0.54    0.03    0.10    0.24    0.23    0.24    0.36   15.81   12.51    0.01    0.00    0.00   15.81    3.84
 1997 218    70     0     0     1.5   10.8    7.2    3.5    0.14    0.29    0.51    0.63    0.63    0.57    0.04    0.12    0.25    0.23    0.24    0.36   16.06   12.69    0.01    0.00    0.00   16.06    4.05
 1997 219    71     0     0     1.7   10.6    7.0    3.6    0.17    0.30    0.46    0.59    0.61    0.58    0.05    0.13    0.26    0.23    0.24    0.36   16.32   12.90    0.01    0.00    0.00   16.32    4.35
 1997 220    72     0     0     1.7   10.6    7.0    3.6    0.22    0.32    0.46    0.56    0.59    0.58    0.04    0.12    0.27    0.23    0.24    0.37   16.58   13.14    0.01    0.00    0.00   16.58    4.55
 1997 221    73     0     0     1.7   10.7    7.1    3.6    0.29    0.36    0.48    0.54    0.58    0.58    0.03    0.12    0.27    0.23    0.24    0.37   16.84   13.40    0.01    0.00    0.00   16.84    4.74
 1997 222    74     0     0     1.7   10.7    7.2    3.6    0.32    0.40    0.50    0.52    0.57    0.58    0.03    0.12    0.27    0.23    0.24    0.37   17.09   13.65    0.01    0.00    0.00   17.09    4.92
 1997 223    75     0     0     1.7   10.8    7.2    3.6    0.36    0.43    0.53    0.51    0.56    0.58    0.02    0.11    0.27    0.23    0.24    0.37   17.35   13.90    0.01    0.00    0.00   17.35    5.09
 1997 224    76     0     0     1.7   10.8    7.2    3.6    0.40    0.46    0.49    0.53    0.56    0.59    0.02    0.11    0.27    0.23    0.24    0.37   17.61   14.15    0.01    0.00    0.00   17.61    5.34
 1997 225    77     0     0     1.7   10.9    7.3    3.6    0.43    0.49    0.51    0.51    0.56    0.59    0.02    0.11    0.27    0.23    0.24    0.38   17.86   14.41    0.01    0.00    0.00   17.86    5.49
 1997 226    78     0     0     1.7   10.9    7.3    3.6    0.46    0.53    0.48    0.50    0.55    0.59    0.01    0.10    0.27    0.23    0.24    0.38   18.11   14.66    0.01    0.00    0.00   18.11    5.77
 1997 227    79     0     0     1.7   11.0    7.4    3.6    0.48    0.51    0.51    0.52    0.55    0.59    0.01    0.10    0.27    0.23    0.24    0.38   18.35   14.91    0.01    0.00    0.00   18.35    5.91
 1997 228    80     0     0     1.7   11.1    7.5    3.6    0.50    0.53    0.53    0.52    0.55    0.59    0.03    0.09    0.27    0.23    0.24    0.38   18.60   15.15    0.01    0.00    0.00   18.60    6.05
 1997 229    81     0     0     1.7   11.1    7.5    3.6    0.55    0.53    0.52    0.51    0.55    0.60    0.02    0.09    0.26    0.23    0.24    0.38   18.84   15.40    0.01    0.00    0.00   18.84    6.33
 1997 230    82     0     0     1.7   11.1    7.5    3.6    0.12    0.28    0.63    0.66    0.56    0.60    0.02    0.08    0.26    0.23    0.24    0.39   19.07   15.65    0.01    0.00    0.00   19.07    6.54
 1997 231    83     0     0     1.8   11.0    7.4    3.6    0.12    0.26    0.54    0.60    0.60    0.62    0.04    0.10    0.27    0.23    0.24    0.39   19.34   15.84    0.01    0.00    0.00   19.34    6.83
 1997 232    84     0     0     1.8   10.8    7.2    3.7    0.17    0.28    0.48    0.57    0.59    0.63    0.04    0.11    0.28    0.23    0.24    0.39   19.62   16.08    0.01    0.00    0.00   19.62    7.21
 1997 233    85     0     0     1.8   10.9    7.2    3.7    0.14    0.28    0.50    0.57    0.59    0.63    0.02    0.11    0.28    0.23    0.24    0.39   19.90   16.36    0.01    0.00    0.00   19.90    7.43
 1997 234    86     0     0     2.0   10.7    7.0    3.7    0.16    0.28    0.48    0.53    0.56    0.63    0.04    0.13    0.29    0.24    0.24    0.39   20.17   16.57    0.01    0.00    0.00   20.17    7.66
 1997 235    87     0     0     2.1   10.7    7.0    3.7    0.21    0.30    0.49    0.50    0.55    0.63    0.04    0.13    0.29    0.24    0.24    0.39   20.46   16.85    0.01    0.00    0.00   20.46    7.89
 1997 236    88     0     0     2.1   10.9    7.2    3.7    0.26    0.34    0.51    0.52    0.53    0.63    0.04    0.12    0.29    0.23    0.24    0.39   20.74   17.13    0.01    0.00    0.00   20.74    8.01
 1997 237    89     0     0     2.1   11.0    7.3    3.7    0.21    0.38    0.55    0.51    0.53    0.64    0.02    0.12    0.29    0.23    0.24    0.39   21.03   17.44    0.01    0.00    0.00   21.03    8.22
 1997 238    90     0     0     2.1   10.8    7.0    3.8    0.23    0.39    0.46    0.49    0.52    0.64    0.05    0.13    0.29    0.23    0.24    0.40   21.32   17.70    0.01    0.00    0.00   21.32    8.67
 1997 239    91     0     0     2.1   11.0    7.2    3.8    0.22    0.42    0.51    0.52    0.51    0.64    0.04    0.12    0.29    0.23    0.24    0.40   21.61   17.99    0.01    0.00    0.00   21.61    8.78
 1997 240    92     0     0     2.1   11.1    7.3    3.8    0.25    0.42    0.52    0.50    0.54    0.64    0.05    0.13    0.29    0.23    0.24    0.40   21.89   18.26    0.01    0.00    0.00   21.89    8.92
 1997 241    93     0     0     2.1   11.0    7.3    3.8    0.19    0.44    0.48    0.54    0.53    0.65    0.05    0.12    0.28    0.23    0.24    0.40   22.18   18.56    0.01    0.00    0.00   22.18    9.26
 1997 242    94     0     0     2.3   11.0    7.2    3.8    0.23    0.42    0.49    0.50    0.51    0.65    0.05    0.13    0.29    0.23    0.24    0.40   22.46   18.81    0.01    0.00    0.00   22.46    9.49
 1997 243    95     0     0     2.3   11.1    7.4    3.8    0.29    0.45    0.52    0.53    0.50    0.65    0.04    0.13    0.28    0.23    0.24    0.40   22.74   19.10    0.01    0.00    0.00   22.74    9.59
 1997 244    96     0     0     2.3   11.1    7.3    3.7    0.37    0.49    0.46    0.50    0.52    0.65    0.02    0.12    0.28    0.23    0.24    0.40   23.02   19.40    0.01    0.00    0.00   23.02    9.93
 1997 245    97     0     0     2.3   11.3    7.5    3.7    0.41    0.53    0.49    0.52    0.52    0.65    0.03    0.12    0.28    0.23    0.24    0.40   23.29   19.69    0.01    0.00    0.00   23.29   10.03
 1997 246    98     0     0     2.3   11.2    7.5    3.7    0.45    0.45    0.52    0.51    0.51    0.65    0.02    0.11    0.28    0.23    0.24    0.40   23.57   19.97    0.01    0.00    0.00   23.57   10.37
 1997 247    99     0     0     2.3   11.2    7.5    3.7    0.45    0.50    0.48    0.53    0.51    0.65    0.02    0.11    0.28    0.23    0.24    0.41   23.84   20.24    0.01    0.00    0.00   23.84   10.62
 1997 248   100     0     0     2.3   11.4    7.6    3.7    0.22    0.50    0.58    0.53    0.52    0.65    0.04    0.11    0.28    0.23    0.24    0.41   24.11   20.50    0.01    0.00    0.00   24.11   10.73
 1997 249   101     0     0     2.3   11.2    7.4    3.8    0.24    0.47    0.49    0.55    0.54    0.65    0.05    0.12    0.28    0.23    0.24    0.41   24.38   20.74    0.01    0.00    0.00   24.38   11.15
 1997 250   102     0     0     2.3   11.3    7.5    3.8    0.29    0.47    0.52    0.53    0.53    0.65    0.04    0.13    0.27    0.23    0.24    0.41   24.65   21.00    0.01    0.00    0.00   24.65   11.36
 1997 251   103     0     0     2.3   11.1    7.4    3.8    0.18    0.37    0.50    0.55    0.56    0.66    0.02    0.13    0.27    0.23    0.24    0.41   24.91   21.28    0.01    0.00    0.00   24.91   11.75
 1997 252   104     0     0     2.3   11.2    7.4    3.8    0.12    0.30    0.46    0.57    0.60    0.68    0.04    0.14    0.29    0.24    0.24    0.41   25.18   21.48    0.01    0.00    0.00   25.18   11.95
 1997 253   105     0     0     2.3   11.3    7.4    3.9    0.12    0.29    0.44    0.55    0.60    0.70    0.06    0.15    0.30    0.25    0.24    0.41   25.45   21.66    0.02    0.00    0.00   25.45   12.08
 1997 254   106     0     0     2.9   10.9    6.9    4.0    0.15    0.29    0.42    0.50    0.53    0.66    0.06    0.15    0.31    0.26    0.24    0.41   25.72   21.86    0.02    0.00    0.00   25.72   12.21
 1997 255   107     0     0     3.1   10.8    6.8    4.0    0.21    0.32    0.42    0.49    0.50    0.65    0.05    0.15    0.31    0.26    0.24    0.41   25.99   22.12    0.02    0.00    0.00   25.99   12.31
 1997 256   108     0     0     3.2   11.0    7.0    4.0    0.13    0.24    0.40    0.57    0.57    0.66    0.02    0.13    0.31    0.27    0.24    0.41   26.26   22.42    0.02    0.00    0.00   26.26   12.34
 1997 257   109     0     0     3.8   10.5    6.5    4.1    0.15    0.24    0.37    0.50    0.50    0.63    0.04    0.14    0.32    0.27    0.25    0.42   26.53   22.60    0.03    0.00    0.00   26.53   12.45
 1997 258   110     0     0     3.8   10.7    6.6    4.1    0.15    0.27    0.38    0.50    0.53    0.64    0.04    0.14    0.33    0.28    0.25    0.42   26.80   22.85    0.04    0.00    0.00   26.80   12.49
 1997 259   111     0     0     4.1   10.6    6.5    4.1    0.18    0.29    0.38    0.48    0.49    0.62    0.05    0.14    0.33    0.28    0.25    0.42   27.07   23.09    0.04    0.00    0.00   27.07   12.58
 1997 260   112     0     0     4.1   10.8    6.7    4.1    0.15    0.30    0.42    0.51    0.52    0.63    0.04    0.13    0.33    0.28    0.25    0.42   27.35   23.40    0.05    0.00    0.00   27.35   12.62
 1997 261   113     0     0     4.2   10.8    6.7    4.1    0.11    0.25    0.43    0.52    0.53    0.63    0.05    0.14    0.33    0.28    0.24    0.42   27.62   23.64    0.05    0.00    0.00   27.62   12.80
 1997 262   114     0     0     4.7   10.5    6.3    4.2    0.13    0.24    0.39    0.47    0.48    0.61    0.06    0.15    0.34    0.29    0.25    0.42   27.88   23.84    0.06    0.00    0.00   27.88   12.94
 1997 263   115     0     0     4.9   10.5    6.3    4.2    0.18    0.27    0.38    0.46    0.48    0.60    0.05    0.15    0.34    0.29    0.25    0.42   28.14   24.09    0.07    0.00    0.00   28.14   12.97
 1997 264   116     0     0     5.0   10.6    6.4    4.2    0.23    0.30    0.39    0.47    0.49    0.60    0.04    0.14    0.34    0.29    0.25    0.42   28.41   24.37    0.07    0.00    0.00   28.41   13.00
 1997 265   117     0     0     5.0   10.8    6.7    4.1    0.16    0.30    0.45    0.52    0.52    0.60    0.02    0.13    0.34    0.29    0.25    0.42   28.67   24.70    0.07    0.00    0.00   28.67   13.03
 1997 266   118     0     0     5.3   10.7    6.5    4.2    0.17    0.29    0.43    0.48    0.49    0.60    0.04    0.14    0.34    0.29    0.24    0.42   28.94   24.92    0.07    0.00    0.00   28.94   13.22
 1997 267   119     0     0     5.3   10.9    6.7    4.1    0.18    0.32    0.45    0.51    0.52    0.60    0.04    0.14    0.34    0.29    0.24    0.42   29.21   25.20    0.07    0.00    0.00   29.21   13.26
 1997 268   120     0     0     5.4   10.9    6.8    4.1    0.21    0.34    0.46    0.52    0.50    0.60    0.05    0.14    0.34    0.28    0.24    0.42   29.49   25.48    0.07    0.00    0.00   29.49   13.36
 1997 269   121     0     0     5.4   11.0    6.9    4.1    0.25    0.37    0.48    0.50    0.52    0.61    0.04    0.13    0.34    0.28    0.24    0.42   29.76   25.77    0.07    0.00    0.00   29.76   13.49
 1997 270   122     0     0     5.6   11.1    7.0    4.1    0.11    0.21    0.38    0.54    0.64    0.66    0.04    0.12    0.33    0.28    0.24    0.42   30.02   26.08    0.07    0.00    0.00   30.02   13.59

*DSSAT Cropping System Model Ver. 4.5.1.023 -Stub         NOV 06, 2014; 23:59:41
                                                                                
*RUN   3        : 97 DATE2 CHINESE          CRGRO045 GHNY9701    3              
 MODEL          : CRGRO045 - Peanut                                             
 EXPERIMENT     : GHNY9701 PN 1997 VARIETY X PLANTING DATE EXPERIMENT           
 DATA PATH      :                                                               
 TREATMENT  3   : 97 DATE2 CHINESE          CRGRO045                            
  
!                                                            NO3 (ppm) by soil depth (cm):                   NH4 (ppm) by soil depth (cm):
!                                                            0-5    5-15   15-30   30-45   45-60   60-90     0-5    5-15   15-30   30-45   45-60   60-90
@YEAR DOY   DAS  NAPC  NI#M    NLCC   NIAD   NITD   NHTD    NI1D    NI2D    NI3D    NI4D    NI5D    NI6D    NH1D    NH2D    NH3D    NH4D    NH5D    NH6D    NMNC    NITC    NDNC    NIMC    AMLC   NNMNC    NUCM
 1997 176     0     0     0     0.0    0.3    0.1    0.1    0.01    0.01    0.01    0.01    0.01    0.01    0.01    0.01    0.01    0.01    0.01    0.01    0.00    0.00    0.00    0.00    0.00    0.00    0.00
 1997 177     1     0     0     0.0    0.5    0.2    0.3    0.02    0.01    0.01    0.01    0.01    0.01    0.02    0.03    0.03    0.03    0.03    0.02    0.21    0.02    0.00    0.00    0.00    0.21    0.00
 1997 178     2     0     0     0.0    0.7    0.2    0.5    0.05    0.02    0.01    0.01    0.01    0.01    0.02    0.04    0.04    0.04    0.04    0.03    0.43    0.07    0.00    0.00    0.00    0.43    0.00
 1997 179     3     0     0     0.0    0.9    0.3    0.6    0.04    0.04    0.02    0.02    0.02    0.01    0.01    0.05    0.06    0.05    0.05    0.04    0.65    0.14    0.00    0.00    0.00    0.65    0.00
 1997 180     4     0     0     0.0    1.1    0.3    0.8    0.06    0.05    0.02    0.02    0.02    0.01    0.03    0.07    0.08    0.07    0.07    0.05    0.87    0.19    0.00    0.00    0.00    0.87    0.00
 1997 181     5     0     0     0.0    1.4    0.4    0.9    0.09    0.06    0.03    0.03    0.03    0.01    0.01    0.07    0.09    0.08    0.08    0.06    1.10    0.29    0.00    0.00    0.00    1.10    0.00
 1997 182     6     0     0     0.0    1.6    0.5    1.1    0.11    0.08    0.04    0.03    0.03    0.02    0.03    0.08    0.10    0.09    0.09    0.07    1.33    0.38    0.00    0.00    0.00    1.33    0.00
 1997 183     7     0     0     0.0    1.8    0.6    1.2    0.16    0.10    0.05    0.04    0.04    0.02    0.02    0.08    0.11    0.10    0.10    0.07    1.57    0.50    0.00    0.00    0.00    1.57    0.00
 1997 184     8     0     0     0.0    2.1    0.7    1.3    0.19    0.12    0.06    0.05    0.04    0.02    0.02    0.08    0.12    0.11    0.11    0.08    1.80    0.62    0.00    0.00    0.00    1.80    0.00
 1997 185     9     0     0     0.0    2.3    0.9    1.4    0.21    0.15    0.07    0.05    0.05    0.02    0.02    0.08    0.13    0.12    0.12    0.09    2.03    0.75    0.00    0.00    0.00    2.03    0.00
 1997 186    10     0     0     0.0    2.5    1.0    1.5    0.24    0.17    0.08    0.06    0.06    0.02    0.02    0.09    0.14    0.13    0.13    0.10    2.25    0.87    0.00    0.00    0.00    2.25    0.00
 1997 187    11     0     0     0.0    2.7    1.1    1.6    0.26    0.19    0.09    0.07    0.07    0.03    0.02    0.09    0.15    0.13    0.14    0.11    2.47    1.00    0.00    0.00    0.00    2.47    0.00
 1997 188    12     0     0     0.0    3.0    1.3    1.7    0.29    0.21    0.10    0.08    0.08    0.03    0.02    0.09    0.16    0.14    0.14    0.11    2.70    1.14    0.00    0.00    0.00    2.70    0.00
 1997 189    13     0     0     0.0    3.2    1.4    1.8    0.32    0.24    0.12    0.09    0.09    0.03    0.02    0.09    0.17    0.15    0.15    0.12    2.92    1.28    0.00    0.00    0.00    2.92    0.00
 1997 190    14     0     0     0.0    3.4    1.5    1.9    0.34    0.26    0.13    0.10    0.10    0.03    0.02    0.09    0.17    0.15    0.16    0.13    3.15    1.43    0.00    0.00    0.00    3.15    0.00
 1997 191    15     0     0     0.0    3.6    1.7    1.9    0.14    0.30    0.18    0.13    0.12    0.04    0.01    0.09    0.18    0.16    0.16    0.14    3.38    1.59    0.00    0.00    0.00    3.38    0.00
 1997 192    16     0     0     0.0    3.9    1.8    2.0    0.18    0.28    0.19    0.14    0.12    0.05    0.03    0.10    0.19    0.17    0.17    0.14    3.62    1.72    0.00    0.00    0.00    3.62    0.00
 1997 193    17     0     0     0.0    4.1    2.0    2.1    0.25    0.29    0.20    0.15    0.14    0.05    0.02    0.10    0.20    0.17    0.17    0.15    3.86    1.89    0.00    0.00    0.00    3.86    0.00
 1997 194    18     0     0     0.0    4.3    2.2    2.2    0.34    0.31    0.22    0.16    0.15    0.05    0.02    0.10    0.20    0.18    0.18    0.16    4.10    2.07    0.00    0.00    0.00    4.10    0.00
 1997 195    19     0     0     0.0    4.6    2.3    2.2    0.15    0.27    0.26    0.22    0.18    0.07    0.02    0.10    0.20    0.18    0.18    0.16    4.33    2.25    0.00    0.00    0.00    4.33    0.00
 1997 196    20     0     0     0.2    4.6    2.3    2.3    0.11    0.14    0.19    0.21    0.21    0.13    0.03    0.11    0.21    0.19    0.19    0.17    4.57    2.39    0.00    0.00    0.00    4.57    0.00
 1997 197    21     0     0     0.3    4.8    2.3    2.4    0.13    0.15    0.19    0.21    0.21    0.13    0.04    0.11    0.22    0.20    0.20    0.18    4.81    2.52    0.00    0.00    0.00    4.81    0.00
 1997 198    22     0     0     0.4    4.9    2.4    2.5    0.18    0.17    0.19    0.20    0.20    0.13    0.04    0.11    0.23    0.20    0.20    0.18    5.05    2.68    0.00    0.00    0.00    5.05    0.00
 1997 199    23     0     0     0.5    5.1    2.5    2.5    0.25    0.21    0.20    0.21    0.20    0.14    0.02    0.11    0.24    0.21    0.21    0.19    5.28    2.87    0.00    0.00    0.00    5.28    0.00
 1997 200    24     0     0     0.5    5.3    2.7    2.6    0.31    0.23    0.22    0.22    0.22    0.14    0.02    0.10    0.24    0.21    0.21    0.19    5.51    3.07    0.00    0.00    0.00    5.51    0.00
 1997 201    25     0     0     0.5    5.6    2.9    2.6    0.39    0.26    0.24    0.24    0.23    0.14    0.02    0.10    0.24    0.21    0.21    0.20    5.74    3.26    0.00    0.00    0.00    5.74    0.00
 1997 202    26     0     0     0.5    5.8    3.1    2.7    0.42    0.28    0.26    0.25    0.24    0.15    0.02    0.10    0.24    0.21    0.21    0.21    5.97    3.45    0.00    0.00    0.00    5.97    0.00
 1997 203    27     0     0     0.5    6.0    3.3    2.7    0.45    0.31    0.28    0.27    0.26    0.15    0.02    0.10    0.24    0.22    0.21    0.21    6.19    3.65    0.00    0.00    0.00    6.19    0.00
 1997 204    28     0     0     0.5    6.2    3.5    2.7    0.47    0.34    0.30    0.28    0.27    0.16    0.02    0.10    0.24    0.22    0.22    0.22    6.42    3.85    0.00    0.00    0.00    6.42    0.00
 1997 205    29     0     0     0.5    6.5    3.7    2.7    0.48    0.38    0.32    0.30    0.29    0.16    0.03    0.10    0.24    0.22    0.22    0.22    6.66    4.05    0.00    0.00    0.00    6.66    0.00
 1997 206    30     0     0     0.5    6.7    3.9    2.8    0.52    0.41    0.34    0.32    0.30    0.17    0.02    0.10    0.24    0.22    0.22    0.23    6.90    4.27    0.00    0.00    0.00    6.90    0.00
 1997 207    31     0     0     0.5    6.9    4.2    2.8    0.54    0.43    0.36    0.33    0.32    0.17    0.02    0.10    0.24    0.22    0.22    0.23    7.14    4.49    0.00    0.00    0.00    7.14    0.01
 1997 208    32     0     0     0.5    7.2    4.4    2.8    0.57    0.46    0.38    0.35    0.34    0.18    0.02    0.09    0.24    0.22    0.22    0.24    7.39    4.72    0.00    0.00    0.00    7.39    0.01
 1997 209    33     0     0     0.5    7.4    4.6    2.8    0.60    0.49    0.41    0.37    0.35    0.18    0.02    0.09    0.24    0.22    0.22    0.24    7.64    4.96    0.00    0.00    0.00    7.64    0.02
 1997 210    34     0     0     0.5    7.7    4.8    2.8    0.57    0.55    0.43    0.39    0.37    0.19    0.02    0.09    0.24    0.22    0.22    0.25    7.89    5.20    0.00    0.00    0.00    7.89    0.02
 1997 211    35     0     0     0.5    7.9    5.0    2.9    0.30    0.54    0.53    0.43    0.39    0.19    0.03    0.09    0.24    0.22    0.22    0.25    8.15    5.43    0.00    0.00    0.00    8.15    0.06
 1997 212    36     0     0     0.5    8.1    5.2    2.9    0.34    0.50    0.52    0.46    0.42    0.21    0.04    0.10    0.24    0.22    0.22    0.25    8.40    5.64    0.00    0.00    0.00    8.40    0.13
 1997 213    37     0     0     0.5    8.3    5.4    2.9    0.40    0.52    0.52    0.48    0.43    0.21    0.03    0.10    0.24    0.22    0.22    0.26    8.65    5.86    0.00    0.00    0.00    8.65    0.17
 1997 214    38     0     0     0.5    8.4    5.5    2.9    0.49    0.51    0.52    0.49    0.44    0.22    0.02    0.10    0.24    0.22    0.22    0.26    8.88    6.08    0.00    0.00    0.00    8.88    0.25
 1997 215    39     0     0     0.5    8.6    5.6    3.0    0.52    0.51    0.52    0.51    0.46    0.22    0.02    0.10    0.24    0.22    0.22    0.27    9.12    6.29    0.00    0.00    0.00    9.12    0.34
 1997 216    40     0     0     0.5    8.8    5.8    3.0    0.54    0.54    0.52    0.53    0.47    0.23    0.02    0.10    0.24    0.22    0.22    0.27    9.36    6.50    0.00    0.00    0.00    9.36    0.39
 1997 217    41     0     0     0.6    8.7    5.7    3.0    0.14    0.31    0.45    0.57    0.58    0.31    0.02    0.10    0.24    0.22    0.22    0.28    9.59    6.72    0.00    0.00    0.00    9.59    0.52
 1997 218    42     0     0     1.0    8.6    5.5    3.1    0.17    0.30    0.41    0.51    0.52    0.34    0.04    0.11    0.25    0.23    0.23    0.28    9.83    6.87    0.00    0.00    0.00    9.83    0.54
 1997 219    43     0     0     1.1    8.7    5.6    3.1    0.22    0.32    0.42    0.50    0.51    0.35    0.03    0.11    0.26    0.23    0.23    0.28   10.08    7.08    0.00    0.00    0.00   10.08    0.55
 1997 220    44     0     0     1.1    9.0    5.8    3.1    0.30    0.36    0.44    0.52    0.52    0.36    0.02    0.10    0.26    0.23    0.23    0.29   10.32    7.31    0.00    0.00    0.00   10.32    0.55
 1997 221    45     0     0     1.1    9.2    6.0    3.2    0.39    0.39    0.46    0.52    0.52    0.36    0.02    0.10    0.26    0.23    0.23    0.29   10.56    7.54    0.00    0.00    0.00   10.56    0.60
 1997 222    46     0     0     1.1    9.3    6.2    3.2    0.42    0.42    0.48    0.52    0.53    0.37    0.02    0.10    0.25    0.23    0.23    0.29   10.80    7.76    0.00    0.00    0.00   10.80    0.66
 1997 223    47     0     0     1.1    9.5    6.3    3.2    0.46    0.44    0.50    0.53    0.54    0.38    0.02    0.10    0.25    0.23    0.23    0.30   11.04    7.99    0.00    0.00    0.00   11.04    0.71
 1997 224    48     0     0     1.1    9.7    6.5    3.2    0.49    0.47    0.53    0.53    0.55    0.38    0.02    0.10    0.25    0.23    0.23    0.30   11.28    8.23    0.00    0.00    0.00   11.28    0.77
 1997 225    49     0     0     1.1    9.8    6.6    3.2    0.52    0.50    0.52    0.54    0.55    0.39    0.01    0.09    0.25    0.23    0.23    0.30   11.52    8.46    0.00    0.00    0.00   11.52    0.89
 1997 226    50     0     0     1.1    9.9    6.8    3.2    0.54    0.53    0.52    0.54    0.56    0.40    0.01    0.09    0.25    0.23    0.23    0.31   11.75    8.69    0.00    0.00    0.00   11.75    1.01
 1997 227    51     0     0     1.1   10.0    6.8    3.2    0.56    0.53    0.52    0.55    0.57    0.40    0.01    0.09    0.25    0.23    0.23    0.31   11.99    8.92    0.00    0.00    0.00   11.99    1.16
 1997 228    52     0     0     1.1   10.1    6.9    3.2    0.56    0.53    0.52    0.55    0.57    0.41    0.02    0.08    0.25    0.23    0.23    0.31   12.23    9.15    0.00    0.00    0.00   12.23    1.33
 1997 229    53     0     0     1.1   10.2    7.0    3.2    0.59    0.54    0.52    0.55    0.58    0.42    0.02    0.08    0.25    0.23    0.23    0.32   12.46    9.38    0.00    0.00    0.00   12.46    1.49
 1997 230    54     0     0     1.1   10.2    7.0    3.2    0.12    0.27    0.54    0.69    0.67    0.45    0.02    0.08    0.24    0.23    0.23    0.32   12.69    9.61    0.00    0.00    0.00   12.69    1.63
 1997 231    55     0     0     1.4   10.0    6.7    3.3    0.13    0.27    0.48    0.62    0.63    0.49    0.03    0.09    0.25    0.23    0.23    0.32   12.94    9.79    0.00    0.00    0.00   12.94    1.78
 1997 232    56     0     0     1.4   10.2    6.9    3.3    0.21    0.30    0.49    0.60    0.63    0.50    0.02    0.09    0.26    0.24    0.24    0.33   13.20   10.03    0.00    0.00    0.00   13.20    1.89
 1997 233    57     0     0     1.5   10.3    7.0    3.3    0.15    0.28    0.50    0.61    0.64    0.51    0.03    0.09    0.26    0.23    0.23    0.33   13.47   10.28    0.00    0.00    0.00   13.47    2.01
 1997 234    58     0     0     1.6   10.3    6.9    3.4    0.20    0.30    0.48    0.58    0.62    0.53    0.04    0.10    0.26    0.24    0.24    0.33   13.73   10.50    0.00    0.00    0.00   13.73    2.14
 1997 235    59     0     0     1.6   10.4    7.0    3.4    0.28    0.34    0.51    0.57    0.62    0.53    0.02    0.10    0.26    0.23    0.24    0.33   14.00   10.79    0.00    0.00    0.00   14.00    2.28
 1997 236    60     0     0     1.6   10.5    7.2    3.4    0.32    0.37    0.53    0.56    0.61    0.53    0.03    0.10    0.26    0.23    0.23    0.34   14.27   11.05    0.00    0.00    0.00   14.27    2.42
 1997 237    61     0     0     1.6   10.5    7.2    3.4    0.22    0.39    0.52    0.57    0.62    0.54    0.02    0.10    0.25    0.23    0.23    0.34   14.54   11.32    0.00    0.00    0.00   14.54    2.68
 1997 238    62     0     0     1.6   10.5    7.1    3.4    0.27    0.41    0.49    0.56    0.62    0.55    0.04    0.10    0.25    0.23    0.23    0.34   14.81   11.57    0.00    0.00    0.00   14.81    2.97
 1997 239    63     0     0     1.6   10.6    7.3    3.4    0.27    0.43    0.52    0.56    0.62    0.55    0.02    0.10    0.25    0.23    0.23    0.34   15.08   11.85    0.00    0.00    0.00   15.08    3.12
 1997 240    64     0     0     1.6   10.6    7.2    3.4    0.31    0.44    0.48    0.55    0.62    0.56    0.04    0.10    0.25    0.23    0.23    0.35   15.35   12.10    0.00    0.00    0.00   15.35    3.42
 1997 241    65     0     0     1.6   10.7    7.3    3.4    0.23    0.43    0.52    0.56    0.62    0.57    0.03    0.10    0.25    0.23    0.23    0.35   15.62   12.37    0.00    0.00    0.00   15.62    3.57
 1997 242    66     0     0     1.7   10.6    7.1    3.4    0.29    0.43    0.47    0.53    0.60    0.57    0.04    0.10    0.25    0.23    0.23    0.35   15.89   12.60    0.00    0.00    0.00   15.89    3.87
 1997 243    67     0     0     1.7   10.7    7.3    3.4    0.38    0.46    0.49    0.52    0.59    0.57    0.02    0.10    0.25    0.23    0.23    0.35   16.15   12.88    0.00    0.00    0.00   16.15    4.03
 1997 244    68     0     0     1.7   10.8    7.4    3.4    0.41    0.49    0.51    0.51    0.59    0.58    0.03    0.10    0.25    0.23    0.23    0.35   16.42   13.13    0.00    0.00    0.00   16.42    4.17
 1997 245    69     0     0     1.7   10.8    7.4    3.4    0.46    0.53    0.49    0.50    0.59    0.58    0.02    0.10    0.25    0.23    0.23    0.36   16.68   13.40    0.00    0.00    0.00   16.68    4.43
 1997 246    70     0     0     1.7   10.9    7.5    3.4    0.49    0.49    0.51    0.52    0.58    0.59    0.02    0.10    0.25    0.23    0.23    0.36   16.94   13.65    0.00    0.00    0.00   16.94    4.60
 1997 247    71     0     0     1.7   10.9    7.5    3.4    0.51    0.53    0.49    0.52    0.58    0.59    0.02    0.10    0.25    0.23    0.23    0.36   17.19   13.90    0.00    0.00    0.00   17.19    4.84
 1997 248    72     0     0     1.7   10.9    7.5    3.4    0.24    0.45    0.60    0.54    0.58    0.59    0.03    0.10    0.25    0.23    0.23    0.36   17.45   14.14    0.00    0.00    0.00   17.45    5.04
 1997 249    73     0     0     1.7   10.9    7.4    3.5    0.28    0.44    0.53    0.56    0.59    0.59    0.04    0.10    0.25    0.23    0.23    0.36   17.71   14.37    0.00    0.00    0.00   17.71    5.37
 1997 250    74     0     0     1.7   10.8    7.4    3.5    0.35    0.47    0.48    0.54    0.59    0.60    0.02    0.11    0.25    0.23    0.23    0.37   17.97   14.63    0.00    0.00    0.00   17.97    5.68
 1997 251    75     0     0     1.8   10.9    7.4    3.5    0.18    0.35    0.50    0.58    0.63    0.62    0.03    0.10    0.25    0.23    0.23    0.37   18.23   14.88    0.00    0.00    0.00   18.23    5.83
 1997 252    76     0     0     2.0   10.8    7.3    3.5    0.14    0.28    0.45    0.56    0.63    0.65    0.04    0.11    0.26    0.23    0.24    0.37   18.50   15.09    0.00    0.00    0.00   18.50    5.98
 1997 253    77     0     0     2.2   10.7    7.1    3.6    0.15    0.28    0.43    0.52    0.61    0.66    0.04    0.12    0.27    0.24    0.24    0.37   18.76   15.28    0.00    0.00    0.00   18.76    6.09
 1997 254    78     0     0     2.6   10.5    6.8    3.7    0.19    0.30    0.42    0.48    0.55    0.64    0.04    0.12    0.27    0.24    0.24    0.38   19.03   15.51    0.00    0.00    0.00   19.03    6.21
 1997 255    79     0     0     2.7   10.6    7.0    3.6    0.27    0.34    0.44    0.49    0.53    0.64    0.02    0.11    0.27    0.25    0.24    0.38   19.29   15.78    0.00    0.00    0.00   19.29    6.29
 1997 256    80     0     0     2.9   10.5    6.9    3.6    0.13    0.23    0.39    0.53    0.58    0.66    0.03    0.11    0.27    0.25    0.24    0.38   19.55   16.04    0.00    0.00    0.00   19.55    6.38
 1997 257    81     0     0     3.4   10.2    6.5    3.7    0.16    0.24    0.37    0.47    0.52    0.63    0.04    0.12    0.28    0.25    0.25    0.38   19.82   16.24    0.00    0.00    0.00   19.82    6.48
 1997 258    82     0     0     3.5   10.3    6.6    3.7    0.18    0.27    0.38    0.48    0.51    0.63    0.02    0.11    0.28    0.25    0.25    0.38   20.08   16.50    0.00    0.00    0.00   20.08    6.56
 1997 259    83     0     0     3.6   10.4    6.7    3.7    0.21    0.30    0.40    0.49    0.52    0.63    0.04    0.11    0.28    0.25    0.25    0.38   20.35   16.75    0.00    0.00    0.00   20.35    6.58
 1997 260    84     0     0     3.7   10.6    6.8    3.7    0.18    0.29    0.43    0.53    0.53    0.63    0.02    0.11    0.28    0.25    0.25    0.39   20.62   17.05    0.00    0.00    0.00   20.62    6.67
 1997 261    85     0     0     3.8   10.5    6.8    3.7    0.12    0.25    0.41    0.52    0.54    0.64    0.04    0.11    0.28    0.25    0.25    0.39   20.89   17.29    0.00    0.00    0.00   20.89    6.82
 1997 262    86     0     0     4.3   10.2    6.4    3.8    0.15    0.25    0.38    0.47    0.50    0.62    0.04    0.12    0.29    0.26    0.25    0.39   21.15   17.49    0.00    0.00    0.00   21.15    6.95
 1997 263    87     0     0     4.4   10.4    6.6    3.8    0.22    0.28    0.39    0.48    0.51    0.62    0.02    0.12    0.29    0.26    0.25    0.39   21.41   17.75    0.00    0.00    0.00   21.41    6.97
 1997 264    88     0     0     4.4   10.6    6.8    3.8    0.26    0.32    0.42    0.50    0.53    0.62    0.03    0.11    0.29    0.26    0.25    0.39   21.66   18.02    0.00    0.00    0.00   21.66    7.00
 1997 265    89     0     0     4.4   10.7    7.0    3.8    0.17    0.29    0.45    0.54    0.55    0.63    0.02    0.11    0.28    0.25    0.25    0.39   21.92   18.30    0.00    0.00    0.00   21.92    7.07
 1997 266    90     0     0     4.6   10.6    6.8    3.8    0.20    0.29    0.43    0.51    0.52    0.63    0.04    0.11    0.29    0.26    0.25    0.40   22.19   18.52    0.00    0.00    0.00   22.19    7.23
 1997 267    91     0     0     4.7   10.8    7.0    3.8    0.21    0.32    0.45    0.53    0.53    0.63    0.03    0.11    0.29    0.26    0.25    0.40   22.45   18.79    0.00    0.00    0.00   22.45    7.31
 1997 268    92     0     0     4.7   10.8    7.0    3.8    0.25    0.35    0.48    0.51    0.52    0.63    0.04    0.11    0.28    0.26    0.25    0.40   22.72   19.07    0.00    0.00    0.00   22.72    7.47
 1997 269    93     0     0     4.7   10.9    7.2    3.8    0.30    0.39    0.50    0.50    0.52    0.64    0.03    0.11    0.28    0.25    0.24    0.40   22.99   19.35    0.00    0.00    0.00   22.99    7.63
 1997 270    94     0     0     5.3   10.5    6.8    3.8    0.13    0.21    0.36    0.49    0.55    0.69    0.02    0.10    0.28    0.25    0.24    0.40   23.25   19.63    0.00    0.00    0.00   23.25    7.70
 1997 271    95     0     0     5.9   10.1    6.3    3.8    0.17    0.22    0.35    0.45    0.49    0.63    0.04    0.11    0.28    0.26    0.25    0.40   23.51   19.82    0.00    0.00    0.00   23.51    7.75
 1997 272    96     0     0     6.0   10.3    6.4    3.8    0.22    0.26    0.37    0.46    0.50    0.63    0.02    0.11    0.28    0.26    0.25    0.40   23.78   20.11    0.00    0.00    0.00   23.78    7.77
 1997 273    97     0     0     6.0   10.5    6.7    3.8    0.26    0.31    0.40    0.48    0.51    0.63    0.03    0.10    0.28    0.25    0.25    0.40   24.06   20.40    0.00    0.00    0.00   24.06    7.79
 1997 274    98     0     0     6.0   10.7    7.0    3.7    0.34    0.35    0.43    0.51    0.51    0.63    0.02    0.10    0.27    0.25    0.25    0.40   24.34   20.73    0.00    0.00    0.00   24.34    7.87
 1997 275    99     0     0     6.0   10.9    7.2    3.7    0.20    0.34    0.49    0.56    0.53    0.64    0.03    0.09    0.27    0.25    0.24    0.41   24.62   21.04    0.00    0.00    0.00   24.62    7.95
 1997 276   100     0     0     6.1   11.0    7.2    3.7    0.25    0.35    0.49    0.54    0.53    0.64    0.04    0.10    0.27    0.24    0.24    0.41   24.91   21.32    0.00    0.00    0.00   24.91    8.10
 1997 277   101     0     0     6.1   11.1    7.4    3.7    0.32    0.39    0.52    0.53    0.53    0.65    0.02    0.10    0.26    0.24    0.24    0.41   25.19   21.63    0.00    0.00    0.00   25.19    8.26

*DSSAT Cropping System Model Ver. 4.5.1.023 -Stub         NOV 06, 2014; 23:59:41
                                                                                
*RUN   4        : 97 DATE2 F-MIX            CRGRO045 GHNY9701    4              
 MODEL          : CRGRO045 - Peanut                                             
 EXPERIMENT     : GHNY9701 PN 1997 VARIETY X PLANTING DATE EXPERIMENT           
 DATA PATH      :                                                               
 TREATMENT  4   : 97 DATE2 F-MIX            CRGRO045                            
  
!                                                            NO3 (ppm) by soil depth (cm):                   NH4 (ppm) by soil depth (cm):
!                                                            0-5    5-15   15-30   30-45   45-60   60-90     0-5    5-15   15-30   30-45   45-60   60-90
@YEAR DOY   DAS  NAPC  NI#M    NLCC   NIAD   NITD   NHTD    NI1D    NI2D    NI3D    NI4D    NI5D    NI6D    NH1D    NH2D    NH3D    NH4D    NH5D    NH6D    NMNC    NITC    NDNC    NIMC    AMLC   NNMNC    NUCM
 1997 176     0     0     0     0.0    0.3    0.1    0.1    0.01    0.01    0.01    0.01    0.01    0.01    0.01    0.01    0.01    0.01    0.01    0.01    0.00    0.00    0.00    0.00    0.00    0.00    0.00
 1997 177     1     0     0     0.0    0.5    0.2    0.3    0.02    0.01    0.01    0.01    0.01    0.01    0.02    0.03    0.03    0.03    0.03    0.02    0.21    0.02    0.00    0.00    0.00    0.21    0.00
 1997 178     2     0     0     0.0    0.7    0.2    0.5    0.05    0.02    0.01    0.01    0.01    0.01    0.02    0.04    0.04    0.04    0.04    0.03    0.43    0.07    0.00    0.00    0.00    0.43    0.00
 1997 179     3     0     0     0.0    0.9    0.3    0.6    0.04    0.04    0.02    0.02    0.02    0.01    0.01    0.05    0.06    0.05    0.05    0.04    0.65    0.14    0.00    0.00    0.00    0.65    0.00
 1997 180     4     0     0     0.0    1.1    0.3    0.8    0.06    0.05    0.02    0.02    0.02    0.01    0.03    0.07    0.08    0.07    0.07    0.05    0.87    0.19    0.00    0.00    0.00    0.87    0.00
 1997 181     5     0     0     0.0    1.4    0.4    0.9    0.09    0.06    0.03    0.03    0.03    0.01    0.01    0.07    0.09    0.08    0.08    0.06    1.10    0.29    0.00    0.00    0.00    1.10    0.00
 1997 182     6     0     0     0.0    1.6    0.5    1.1    0.11    0.08    0.04    0.03    0.03    0.02    0.03    0.08    0.10    0.09    0.09    0.07    1.33    0.38    0.00    0.00    0.00    1.33    0.00
 1997 183     7     0     0     0.0    1.8    0.6    1.2    0.16    0.10    0.05    0.04    0.04    0.02    0.02    0.08    0.11    0.10    0.10    0.07    1.57    0.50    0.00    0.00    0.00    1.57    0.00
 1997 184     8     0     0     0.0    2.1    0.7    1.3    0.19    0.12    0.06    0.05    0.04    0.02    0.02    0.08    0.12    0.11    0.11    0.08    1.80    0.62    0.00    0.00    0.00    1.80    0.00
 1997 185     9     0     0     0.0    2.3    0.9    1.4    0.21    0.15    0.07    0.05    0.05    0.02    0.02    0.08    0.13    0.12    0.12    0.09    2.03    0.75    0.00    0.00    0.00    2.03    0.00
 1997 186    10     0     0     0.0    2.5    1.0    1.5    0.24    0.17    0.08    0.06    0.06    0.02    0.02    0.09    0.14    0.13    0.13    0.10    2.25    0.87    0.00    0.00    0.00    2.25    0.00
 1997 187    11     0     0     0.0    2.7    1.1    1.6    0.26    0.19    0.09    0.07    0.07    0.03    0.02    0.09    0.15    0.13    0.14    0.11    2.47    1.00    0.00    0.00    0.00    2.47    0.00
 1997 188    12     0     0     0.0    3.0    1.3    1.7    0.29    0.21    0.10    0.08    0.08    0.03    0.02    0.09    0.16    0.14    0.14    0.11    2.70    1.14    0.00    0.00    0.00    2.70    0.00
 1997 189    13     0     0     0.0    3.2    1.4    1.8    0.32    0.24    0.12    0.09    0.09    0.03    0.02    0.09    0.17    0.15    0.15    0.12    2.92    1.28    0.00    0.00    0.00    2.92    0.00
 1997 190    14     0     0     0.0    3.4    1.5    1.9    0.34    0.26    0.13    0.10    0.10    0.03    0.02    0.09    0.17    0.15    0.16    0.13    3.15    1.43    0.00    0.00    0.00    3.15    0.00
 1997 191    15     0     0     0.0    3.6    1.7    1.9    0.14    0.30    0.18    0.13    0.12    0.04    0.01    0.09    0.18    0.16    0.16    0.14    3.38    1.59    0.00    0.00    0.00    3.38    0.00
 1997 192    16     0     0     0.0    3.9    1.8    2.0    0.18    0.28    0.19    0.14    0.12    0.05    0.03    0.10    0.19    0.17    0.17    0.14    3.62    1.72    0.00    0.00    0.00    3.62    0.00
 1997 193    17     0     0     0.0    4.1    2.0    2.1    0.25    0.29    0.20    0.15    0.14    0.05    0.02    0.10    0.20    0.17    0.17    0.15    3.86    1.89    0.00    0.00    0.00    3.86    0.00
 1997 194    18     0     0     0.0    4.3    2.2    2.2    0.34    0.31    0.22    0.16    0.15    0.05    0.02    0.10    0.20    0.18    0.18    0.16    4.10    2.07    0.00    0.00    0.00    4.10    0.00
 1997 195    19     0     0     0.0    4.6    2.3    2.2    0.15    0.27    0.26    0.21    0.18    0.07    0.02    0.10    0.20    0.18    0.18    0.16    4.33    2.25    0.00    0.00    0.00    4.33    0.00
 1997 196    20     0     0     0.2    4.6    2.3    2.3    0.11    0.14    0.19    0.21    0.21    0.13    0.03    0.11    0.21    0.19    0.19    0.17    4.57    2.39    0.00    0.00    0.00    4.57    0.00
 1997 197    21     0     0     0.3    4.8    2.3    2.4    0.14    0.15    0.19    0.21    0.21    0.13    0.04    0.11    0.22    0.20    0.20    0.18    4.81    2.52    0.00    0.00    0.00    4.81    0.00
 1997 198    22     0     0     0.4    4.9    2.4    2.5    0.18    0.17    0.19    0.20    0.20    0.13    0.04    0.11    0.23    0.20    0.20    0.18    5.05    2.68    0.00    0.00    0.00    5.05    0.00
 1997 199    23     0     0     0.5    5.1    2.5    2.5    0.25    0.21    0.20    0.21    0.20    0.14    0.02    0.11    0.24    0.21    0.21    0.19    5.28    2.87    0.00    0.00    0.00    5.28    0.00
 1997 200    24     0     0     0.5    5.3    2.7    2.6    0.32    0.23    0.22    0.22    0.22    0.14    0.02    0.10    0.24    0.21    0.21    0.19    5.52    3.07    0.00    0.00    0.00    5.52    0.00
 1997 201    25     0     0     0.5    5.6    2.9    2.6    0.39    0.26    0.24    0.24    0.23    0.14    0.02    0.10    0.24    0.21    0.21    0.20    5.74    3.26    0.00    0.00    0.00    5.74    0.00
 1997 202    26     0     0     0.5    5.8    3.1    2.7    0.42    0.28    0.26    0.25    0.24    0.15    0.02    0.10    0.24    0.21    0.21    0.21    5.97    3.45    0.00    0.00    0.00    5.97    0.00
 1997 203    27     0     0     0.5    6.0    3.3    2.7    0.45    0.31    0.28    0.27    0.26    0.15    0.02    0.10    0.24    0.22    0.21    0.21    6.19    3.65    0.00    0.00    0.00    6.19    0.00
 1997 204    28     0     0     0.5    6.2    3.5    2.7    0.47    0.34    0.30    0.28    0.27    0.16    0.02    0.10    0.24    0.22    0.22    0.22    6.42    3.85    0.00    0.00    0.00    6.42    0.00
 1997 205    29     0     0     0.5    6.5    3.7    2.7    0.48    0.38    0.32    0.30    0.29    0.16    0.03    0.10    0.24    0.22    0.22    0.22    6.66    4.06    0.00    0.00    0.00    6.66    0.00
 1997 206    30     0     0     0.5    6.7    3.9    2.8    0.52    0.41    0.34    0.32    0.30    0.17    0.02    0.10    0.24    0.22    0.22    0.23    6.90    4.27    0.00    0.00    0.00    6.90    0.00
 1997 207    31     0     0     0.5    6.9    4.2    2.8    0.54    0.44    0.36    0.33    0.32    0.17    0.02    0.10    0.24    0.22    0.22    0.23    7.15    4.49    0.00    0.00    0.00    7.15    0.01
 1997 208    32     0     0     0.5    7.2    4.4    2.8    0.57    0.46    0.38    0.35    0.34    0.18    0.02    0.09    0.24    0.22    0.22    0.24    7.40    4.73    0.00    0.00    0.00    7.40    0.01
 1997 209    33     0     0     0.5    7.4    4.6    2.8    0.60    0.49    0.41    0.37    0.35    0.18    0.02    0.09    0.24    0.22    0.22    0.24    7.65    4.96    0.00    0.00    0.00    7.65    0.02
 1997 210    34     0     0     0.5    7.7    4.8    2.8    0.57    0.55    0.43    0.39    0.37    0.19    0.02    0.09    0.24    0.22    0.22    0.25    7.90    5.20    0.00    0.00    0.00    7.90    0.02
 1997 211    35     0     0     0.5    7.9    5.0    2.9    0.30    0.54    0.53    0.43    0.39    0.19    0.03    0.09    0.24    0.22    0.22    0.25    8.15    5.43    0.00    0.00    0.00    8.15    0.06
[...]
 1997 230    26     0     0     0.1    6.0    3.5    2.5    0.12    0.26    0.32    0.35    0.34    0.15    0.02    0.09    0.22    0.20    0.20    0.21    5.92    3.53    0.00    0.00    0.00    5.92    0.00
 1997 231    27     0     0     0.3    6.1    3.5    2.6    0.18    0.26    0.30    0.32    0.31    0.18    0.03    0.10    0.23    0.21    0.21    0.21    6.17    3.68    0.00    0.00    0.00    6.17    0.00
 1997 232    28     0     0     0.4    6.3    3.7    2.7    0.28    0.29    0.31    0.32    0.31    0.19    0.02    0.10    0.23    0.21    0.21    0.22    6.42    3.89    0.00    0.00    0.00    6.42    0.00
 1997 233    29     0     0     0.4    6.6    3.9    2.7    0.21    0.29    0.33    0.36    0.33    0.20    0.02    0.10    0.23    0.21    0.21    0.22    6.68    4.11    0.00    0.00    0.00    6.68    0.00
 1997 234    30     0     0     0.4    6.8    4.0    2.8    0.30    0.29    0.33    0.35    0.33    0.21    0.03    0.10    0.24    0.22    0.22    0.23    6.94    4.31    0.00    0.00    0.00    6.94    0.00
 1997 235    31     0     0     0.4    7.0    4.2    2.8    0.40    0.33    0.35    0.37    0.35    0.22    0.02    0.10    0.24    0.22    0.22    0.23    7.20    4.56    0.00    0.00    0.00    7.20    0.00
 1997 236    32     0     0     0.4    7.3    4.5    2.8    0.45    0.36    0.37    0.39    0.36    0.22    0.02    0.10    0.24    0.22    0.22    0.24    7.46    4.79    0.00    0.00    0.00    7.46    0.00
 1997 237    33     0     0     0.4    7.5    4.7    2.8    0.29    0.40    0.41    0.42    0.39    0.24    0.02    0.09    0.24    0.22    0.22    0.24    7.71    5.04    0.00    0.00    0.00    7.71    0.00
 1997 238    34     0     0     0.5    7.8    4.9    2.9    0.39    0.41    0.42    0.43    0.40    0.24    0.03    0.10    0.24    0.22    0.22    0.25    7.98    5.25    0.00    0.00    0.00    7.98    0.00
 1997 239    35     0     0     0.5    8.0    5.2    2.9    0.39    0.44    0.45    0.45    0.42    0.25    0.02    0.09    0.24    0.22    0.22    0.25    8.24    5.51    0.00    0.00    0.00    8.24    0.00
 1997 240    36     0     0     0.5    8.3    5.4    2.9    0.47    0.46    0.47    0.47    0.43    0.26    0.03    0.10    0.24    0.22    0.22    0.26    8.49    5.74    0.00    0.00    0.00    8.49    0.00
 1997 241    37     0     0     0.5    8.5    5.6    2.9    0.35    0.47    0.51    0.51    0.46    0.27    0.02    0.09    0.24    0.22    0.22    0.26    8.75    5.99    0.00    0.00    0.00    8.75    0.00
 1997 242    38     0     0     0.5    8.7    5.8    2.9    0.45    0.47    0.51    0.51    0.47    0.29    0.03    0.10    0.24    0.22    0.22    0.26    9.01    6.20    0.00    0.00    0.00    9.01    0.00
 1997 243    39     0     0     0.5    9.0    6.0    3.0    0.59    0.50    0.52    0.52    0.48    0.29    0.02    0.10    0.24    0.22    0.22    0.27    9.26    6.45    0.00    0.00    0.00    9.26    0.02
 1997 244    40     0     0     0.5    9.1    6.2    3.0    0.60    0.53    0.52    0.53    0.50    0.30    0.02    0.09    0.24    0.22    0.22    0.27    9.52    6.68    0.00    0.00    0.00    9.52    0.11
 1997 245    41     0     0     0.5    9.3    6.3    3.0    0.62    0.52    0.53    0.54    0.52    0.30    0.02    0.09    0.24    0.22    0.22    0.28    9.77    6.93    0.00    0.00    0.00    9.77    0.24
 1997 246    42     0     0     0.5    9.4    6.4    3.0    0.65    0.52    0.53    0.55    0.53    0.31    0.02    0.09    0.24    0.22    0.22    0.28   10.02    7.16    0.00    0.00    0.00   10.02    0.38
 1997 247    43     0     0     0.5    9.5    6.5    3.0    0.63    0.53    0.53    0.55    0.54    0.32    0.02    0.09    0.24    0.22    0.22    0.28   10.27    7.39    0.00    0.00    0.00   10.27    0.52
 1997 248    44     0     0     0.5    9.6    6.5    3.0    0.27    0.48    0.59    0.61    0.57    0.33    0.03    0.09    0.24    0.22    0.22    0.29   10.52    7.62    0.00    0.00    0.00   10.52    0.70
 1997 249    45     0     0     0.6    9.6    6.5    3.1    0.34    0.46    0.55    0.60    0.57    0.35    0.04    0.10    0.24    0.22    0.22    0.29   10.77    7.82    0.00    0.00    0.00   10.77    0.83
 1997 250    46     0     0     0.6    9.7    6.6    3.1    0.43    0.48    0.54    0.60    0.58    0.36    0.02    0.10    0.24    0.22    0.22    0.29   11.02    8.06    0.00    0.00    0.00   11.02    0.97
 1997 251    47     0     0     0.7    9.8    6.7    3.1    0.23    0.37    0.52    0.64    0.62    0.39    0.02    0.10    0.24    0.22    0.22    0.30   11.27    8.29    0.00    0.00    0.00   11.27    1.11
 1997 252    48     0     0     0.8    9.8    6.6    3.2    0.18    0.30    0.46    0.62    0.64    0.44    0.04    0.11    0.25    0.23    0.23    0.30   11.52    8.48    0.00    0.00    0.00   11.52    1.22
 1997 253    49     0     0     1.0    9.8    6.5    3.3    0.19    0.30    0.43    0.58    0.62    0.47    0.04    0.11    0.26    0.23    0.23    0.31   11.78    8.66    0.00    0.00    0.00   11.78    1.27
 1997 254    50     0     0     1.3    9.7    6.4    3.3    0.24    0.32    0.42    0.53    0.58    0.48    0.04    0.11    0.26    0.24    0.23    0.31   12.04    8.87    0.00    0.00    0.00   12.04    1.32
 1997 255    51     0     0     1.4    9.8    6.5    3.3    0.32    0.36    0.45    0.52    0.57    0.48    0.02    0.11    0.26    0.24    0.23    0.31   12.29    9.13    0.00    0.00    0.00   12.29    1.39
 1997 256    52     0     0     1.5    9.8    6.5    3.3    0.16    0.25    0.40    0.55    0.61    0.53    0.03    0.10    0.26    0.24    0.23    0.32   12.54    9.38    0.00    0.00    0.00   12.54    1.48
 1997 257    53     0     0     2.0    9.5    6.2    3.4    0.20    0.26    0.38    0.49    0.54    0.52    0.04    0.11    0.27    0.25    0.24    0.32   12.80    9.57    0.00    0.00    0.00   12.80    1.54
 1997 258    54     0     0     2.1    9.7    6.3    3.4    0.21    0.28    0.39    0.50    0.54    0.53    0.02    0.11    0.27    0.25    0.24    0.32   13.06    9.81    0.00    0.00    0.00   13.06    1.59
 1997 259    55     0     0     2.1    9.8    6.4    3.4    0.24    0.31    0.41    0.50    0.53    0.54    0.04    0.11    0.27    0.25    0.24    0.33   13.32   10.04    0.00    0.00    0.00   13.32    1.64
 1997 260    56     0     0     2.2   10.0    6.6    3.4    0.19    0.31    0.44    0.54    0.55    0.54    0.02    0.10    0.27    0.25    0.24    0.33   13.58   10.33    0.00    0.00    0.00   13.58    1.70
 1997 261    57     0     0     2.3   10.0    6.6    3.4    0.13    0.26    0.42    0.54    0.56    0.56    0.04    0.11    0.27    0.25    0.24    0.33   13.85   10.55    0.00    0.00    0.00   13.85    1.82
 1997 262    58     0     0     2.7    9.7    6.2    3.5    0.16    0.26    0.39    0.48    0.52    0.55    0.04    0.12    0.28    0.25    0.24    0.33   14.10   10.74    0.00    0.00    0.00   14.10    1.92
 1997 263    59     0     0     2.8    9.9    6.4    3.5    0.23    0.29    0.40    0.49    0.51    0.56    0.02    0.11    0.28    0.25    0.24    0.34   14.36   11.00    0.00    0.00    0.00   14.36    1.99
 1997 264    60     0     0     2.8   10.1    6.6    3.5    0.27    0.33    0.43    0.51    0.53    0.56    0.03    0.11    0.28    0.25    0.24    0.34   14.61   11.25    0.00    0.00    0.00   14.61    2.01
 1997 265    61     0     0     2.8   10.2    6.7    3.5    0.17    0.29    0.45    0.54    0.55    0.57    0.02    0.11    0.27    0.25    0.24    0.34   14.87   11.52    0.00    0.00    0.00   14.87    2.14
 1997 266    62     0     0     3.0   10.1    6.6    3.5    0.20    0.30    0.44    0.50    0.53    0.57    0.04    0.11    0.28    0.25    0.24    0.34   15.13   11.74    0.00    0.00    0.00   15.13    2.28
 1997 267    63     0     0     3.1   10.2    6.7    3.5    0.21    0.32    0.46    0.52    0.53    0.57    0.03    0.11    0.28    0.25    0.24    0.35   15.40   11.99    0.00    0.00    0.00   15.40    2.36
 1997 268    64     0     0     3.1   10.3    6.8    3.5    0.25    0.35    0.48    0.51    0.52    0.58    0.04    0.11    0.28    0.25    0.24    0.35   15.67   12.26    0.00    0.00    0.00   15.67    2.52
 1997 269    65     0     0     3.1   10.5    7.0    3.5    0.30    0.39    0.51    0.53    0.52    0.58    0.03    0.11    0.27    0.25    0.24    0.35   15.94   12.54    0.00    0.00    0.00   15.94    2.60
 1997 270    66     0     0     3.6   10.1    6.6    3.5    0.13    0.21    0.37    0.49    0.55    0.64    0.02    0.10    0.27    0.25    0.24    0.35   16.20   12.81    0.00    0.00    0.00   16.20    2.76
 1997 271    67     0     0     4.2    9.7    6.1    3.6    0.16    0.22    0.35    0.45    0.49    0.59    0.04    0.11    0.28    0.25    0.25    0.36   16.46   12.99    0.00    0.00    0.00   16.46    2.81
 1997 272    68     0     0     4.3    9.9    6.3    3.6    0.20    0.26    0.38    0.46    0.49    0.59    0.02    0.11    0.28    0.26    0.25    0.36   16.74   13.28    0.00    0.00    0.00   16.74    2.84
 1997 273    69     0     0     4.3   10.1    6.5    3.6    0.24    0.30    0.41    0.48    0.51    0.58    0.04    0.10    0.27    0.25    0.25    0.36   17.02   13.56    0.00    0.00    0.00   17.02    2.86
 1997 274    70     0     0     4.3   10.3    6.7    3.6    0.31    0.34    0.43    0.51    0.51    0.58    0.02    0.10    0.27    0.25    0.24    0.36   17.31   13.88    0.00    0.00    0.00   17.31    2.95
 1997 275    71     0     0     4.3   10.5    7.0    3.5    0.18    0.34    0.49    0.56    0.54    0.59    0.03    0.10    0.26    0.24    0.24    0.36   17.60   14.19    0.00    0.00    0.00   17.60    2.98
 1997 276    72     0     0     4.4   10.5    7.0    3.6    0.22    0.34    0.50    0.54    0.54    0.59    0.04    0.10    0.27    0.24    0.24    0.37   17.89   14.47    0.00    0.00    0.00   17.89    3.19
 1997 277    73     0     0     4.4   10.6    7.1    3.5    0.29    0.38    0.53    0.52    0.53    0.60    0.02    0.10    0.26    0.24    0.24    0.37   18.18   14.78    0.00    0.00    0.00   18.18    3.39
 1997 278    74     0     0     4.6   10.3    6.8    3.5    0.12    0.25    0.40    0.53    0.58    0.63    0.03    0.10    0.26    0.24    0.24    0.37   18.46   15.05    0.00    0.00    0.00   18.46    3.76
 1997 279    75     0     0     5.0   10.2    6.5    3.6    0.09    0.22    0.37    0.49    0.55    0.64    0.04    0.11    0.27    0.24    0.24    0.37   18.73   15.24    0.00    0.00    0.00   18.73    3.89
 1997 280    76     0     0     5.5    9.8    6.1    3.7    0.13    0.23    0.35    0.45    0.49    0.60    0.04    0.12    0.28    0.25    0.25    0.37   19.00   15.45    0.00    0.00    0.00   19.00    3.96
 1997 281    77     0     0     5.5   10.0    6.3    3.7    0.19    0.27    0.37    0.46    0.50    0.60    0.02    0.11    0.28    0.25    0.25    0.38   19.27   15.72    0.00    0.00    0.00   19.27    3.99
 1997 282    78     0     0     5.5   10.2    6.6    3.7    0.22    0.31    0.40    0.48    0.52    0.60    0.04    0.11    0.28    0.25    0.25    0.38   19.54   15.98    0.00    0.00    0.00   19.54    4.02
 1997 283    79     0     0     5.5   10.4    6.7    3.7    0.28    0.35    0.43    0.50    0.51    0.60    0.02    0.11    0.28    0.25    0.25    0.38   19.82   16.27    0.00    0.00    0.00   19.82    4.13
 1997 284    80     0     0     5.5   10.7    7.0    3.7    0.33    0.38    0.46    0.52    0.53    0.60    0.03    0.10    0.27    0.25    0.24    0.38   20.10   16.56    0.00    0.00    0.00   20.10    4.17
 1997 285    81     0     0     5.5   10.7    7.1    3.7    0.40    0.42    0.48    0.51    0.52    0.60    0.02    0.10    0.27    0.25    0.24    0.38   20.37   16.85    0.00    0.00    0.00   20.37    4.36
 1997 286    82     0     0     5.5   10.9    7.3    3.6    0.44    0.45    0.51    0.53    0.51    0.60    0.02    0.10    0.27    0.24    0.24    0.38   20.65   17.15    0.00    0.00    0.00   20.65    4.46
 1997 287    83     0     0     5.5   10.9    7.3    3.6    0.48    0.49    0.49    0.52    0.51    0.60    0.02    0.09    0.26    0.24    0.24    0.39   20.92   17.45    0.00    0.00    0.00   20.92    4.76
 1997 288    84     0     0     5.5   11.0    7.4    3.6    0.23    0.58    0.57    0.51    0.51    0.61    0.02    0.09    0.26    0.24    0.24    0.39   21.19   17.74    0.00    0.00    0.00   21.19    4.93
 1997 289    85     0     0     5.5   10.9    7.2    3.6    0.24    0.43    0.54    0.53    0.53    0.61    0.04    0.09    0.26    0.24    0.24    0.39   21.48   18.01    0.00    0.00    0.00   21.48    5.35
 1997 290    86     0     0     5.5   10.9    7.3    3.6    0.32    0.46    0.51    0.53    0.53    0.61    0.02    0.10    0.26    0.24    0.24    0.39   21.77   18.31    0.00    0.00    0.00   21.77    5.63
 1997 291    87     0     0     5.5   11.0    7.4    3.6    0.16    0.41    0.62    0.54    0.53    0.61    0.03    0.10    0.25    0.23    0.24    0.39   22.04   18.59    0.00    0.00    0.00   22.04    5.77
 1997 292    88     0     0     5.5   10.9    7.3    3.6    0.19    0.40    0.51    0.58    0.53    0.61    0.04    0.11    0.25    0.23    0.23    0.39   22.33   18.86    0.00    0.00    0.00   22.33    6.19
 1997 293    89     0     0     5.5   10.8    7.1    3.6    0.24    0.43    0.45    0.56    0.53    0.62    0.03    0.11    0.25    0.23    0.23    0.39   22.62   19.15    0.00    0.00    0.00   22.62    6.59
 1997 294    90     0     0     5.5   10.9    7.3    3.6    0.30    0.46    0.48    0.54    0.53    0.62    0.02    0.11    0.25    0.23    0.23    0.39   22.90   19.44    0.00    0.00    0.00   22.90    6.76
 1997 295    91     0     0     5.5   11.0    7.4    3.6    0.34    0.50    0.50    0.52    0.54    0.62    0.03    0.10    0.25    0.23    0.23    0.39   23.18   19.72    0.00    0.00    0.00   23.18    6.92
 1997 296    92     0     0     5.5   11.1    7.5    3.6    0.38    0.54    0.53    0.51    0.54    0.62    0.02    0.10    0.25    0.23    0.23    0.40   23.46   20.01    0.00    0.00    0.00   23.46    7.07
 1997 297    93     0     0     5.5   11.0    7.4    3.6    0.29    0.53    0.50    0.50    0.55    0.63    0.02    0.10    0.25    0.23    0.23    0.40   23.73   20.29    0.00    0.00    0.00   23.73    7.49
 1997 298    94     0     0     5.5   11.0    7.4    3.6    0.31    0.43    0.52    0.53    0.56    0.63    0.04    0.10    0.25    0.23    0.22    0.40   24.01   20.57    0.00    0.00    0.00   24.01    7.75
 1997 299    95     0     0     5.5   11.0    7.5    3.6    0.30    0.48    0.52    0.52    0.56    0.63    0.02    0.10    0.25    0.23    0.22    0.40   24.29   20.88    0.00    0.00    0.00   24.29    7.98
 1997 300    96     0     0     5.5   11.1    7.5    3.5    0.33    0.52    0.50    0.52    0.57    0.63    0.04    0.10    0.25    0.22    0.22    0.40   24.57   21.16    0.00    0.00    0.00   24.57    8.22
 1997 301    97     0     0     5.5   11.1    7.6    3.5    0.36    0.44    0.53    0.52    0.58    0.64    0.02    0.10    0.24    0.22    0.21    0.40   24.85   21.48    0.00    0.00    0.00   24.85    8.51
 1997 302    98     0     0     5.5   11.1    7.7    3.5    0.39    0.48    0.52    0.53    0.59    0.64    0.04    0.10    0.24    0.21    0.21    0.40   25.11   21.76    0.00    0.00    0.00   25.11    8.70
 1997 303    99     0     0     5.5   11.2    7.8    3.4    0.48    0.52    0.51    0.53    0.60    0.64    0.02    0.10    0.23    0.21    0.20    0.40   25.37   22.07    0.00    0.00    0.00   25.37    8.86
 1997 304   100     0     0     5.5   11.3    7.9    3.4    0.51    0.46    0.54    0.54    0.61    0.65    0.03    0.09    0.23    0.21    0.20    0.40   25.62   22.35    0.00    0.00    0.00   25.62    9.07
 1997 305   101     0     0     5.5   11.3    8.0    3.4    0.50    0.50    0.54    0.55    0.62    0.65    0.02    0.09    0.22    0.20    0.20    0.40   25.86   22.63    0.00    0.00    0.00   25.86    9.24
 1997 306   102     0     0     5.5   11.5    8.1    3.3    0.54    0.53    0.54    0.56    0.62    0.66    0.02    0.09    0.21    0.20    0.19    0.40   26.08   22.89    0.00    0.00    0.00   26.08    9.36
 1997 307   103     0     0     5.5   11.5    8.2    3.3    0.55    0.51    0.55    0.57    0.63    0.66    0.01    0.08    0.21    0.19    0.19    0.40   26.29   23.14    0.00    0.00    0.00   26.29    9.54
 1997 308   104     0     0     5.5   11.5    8.3    3.2    0.58    0.51    0.56    0.58    0.64    0.67    0.01    0.08    0.20    0.19    0.19    0.40   26.49   23.38    0.00    0.00    0.00   26.49    9.67
 1997 309   105     0     0     5.5   11.6    8.4    3.2    0.60    0.52    0.58    0.59    0.65    0.67    0.01    0.07    0.19    0.18    0.18    0.40   26.67   23.59    0.00    0.00    0.00   26.67    9.76
 1997 310   106     0     0     5.5   11.7    8.6    3.2    0.63    0.53    0.59    0.60    0.66    0.68    0.01    0.07    0.19    0.18    0.18    0.40   26.83   23.80    0.00    0.00    0.00   26.83    9.83
 1997 311   107     0     0     5.5   11.9    8.8    3.1    0.65    0.54    0.60    0.61    0.68    0.69    0.01    0.06    0.18    0.17    0.18    0.40   27.00   24.00    0.00    0.00    0.00   27.00    9.83
 1997 312   108     0     0     5.5   12.1    9.0    3.1    0.67    0.56    0.62    0.63    0.69    0.70    0.01    0.06    0.18    0.17    0.17    0.41   27.16   24.20    0.00    0.00    0.00   27.16    9.83
 1997 313   109     0     0     5.5   12.2    9.2    3.1    0.70    0.57    0.63    0.65    0.71    0.71    0.01    0.06    0.18    0.16    0.17    0.41   27.33   24.40    0.00    0.00    0.00   27.33    9.83
 1997 314   110     0     0     5.5   12.4    9.3    3.0    0.72    0.58    0.65    0.66    0.73    0.72    0.01    0.06    0.17    0.16    0.17    0.40   27.50   24.59    0.00    0.00    0.00   27.50    9.83
 1997 315   111     0     0     5.5   12.6    9.5    3.0    0.74    0.59    0.66    0.68    0.74    0.73    0.01    0.06    0.17    0.15    0.17    0.40   27.66   24.78    0.00    0.00    0.00   27.66    9.83
 1997 316   112     0     0     5.5   12.7    9.7    3.0    0.76    0.60    0.67    0.70    0.76    0.74    0.01    0.05    0.17    0.15    0.16    0.40   27.82   24.97    0.00    0.00    0.00   27.82    9.83
 1997 317   113     0     0     5.5   12.9    9.9    3.0    0.78    0.61    0.68    0.71    0.77    0.76    0.01    0.05    0.16    0.14    0.16    0.40   27.98   25.15    0.00    0.00    0.00   27.98    9.83
 1997 318   114     0     0     5.5   13.0   10.1    2.9    0.80    0.62    0.70    0.73    0.79    0.77    0.01    0.05    0.16    0.14    0.16    0.40   28.14   25.33    0.00    0.00    0.00   28.14    9.83
 1997 319   115     0     0     5.5   13.2   10.3    2.9    0.82    0.63    0.71    0.74    0.80    0.78    0.01    0.05    0.16    0.14    0.16    0.40   28.29   25.51    0.00    0.00    0.00   28.29    9.83
 1997 320   116     0     0     5.5   13.3   10.4    2.9    0.84    0.64    0.72    0.76    0.82    0.79    0.01    0.05    0.16    0.14    0.15    0.40   28.45   25.68    0.00    0.00    0.00   28.45    9.83
 1997 321   117     0     0     5.5   13.5   10.6    2.9    0.85    0.65    0.73    0.77    0.83    0.80    0.01    0.05    0.16    0.13    0.15    0.40   28.60   25.85    0.00    0.00    0.00   28.60    9.83
 1997 322   118     0     0     5.5   13.6   10.8    2.9    0.87    0.66    0.74    0.78    0.85    0.81    0.01    0.05    0.16    0.13    0.15    0.40   28.75   26.01    0.00    0.00    0.00   28.75    9.83
 1997 323   119     0     0     5.5   13.8   10.9    2.9    0.89    0.67    0.75    0.80    0.86    0.82    0.01    0.05    0.15    0.13    0.15    0.40   28.90   26.18    0.00    0.00    0.00   28.90    9.83
 1997 324   120     0     0     5.5   13.9   11.1    2.8    0.91    0.68    0.76    0.81    0.88    0.83    0.01    0.05    0.15    0.13    0.15    0.40   29.05   26.34    0.00    0.00    0.00   29.05    9.83
