*SOIL WATER DAILY OUTPUT FILE

*DSSAT Cropping System Model Ver. 4.5.1.023 -Stub         NOV 08, 2014; 00:45:26
                                                                                
*RUN   1        : 97 DATE1 CHINESE          CRGRO045 GHNY9701    1              
 MODEL          : CRGRO045 - Peanut                                             
 EXPERIMENT     : GHNY9701 PN 1997 VARIETY X PLANTING DATE EXPERIMENT           
 DATA PATH      :                                                               
 TREATMENT  1   : 97 DATE1 CHINESE          CRGRO045                            
  
!                                                                                                 Soil water content (mm3/mm3) by soil depth (cm):
!                                                                                                 0-5    5-15   15-30   30-45   45-60   60-90
@YEAR DOY   DAS  SWTD  SWXD   ROFC   DRNC   PREC  IR#C  IRRC  DTWT    MWTD  TDFD  TDFC   ROFD    SW1D    SW2D    SW3D    SW4D    SW5D    SW6D    
 1997 147     0   157    65      0      0      0     0     0     0    0.19   0.0   0.0   0.00   0.108   0.108   0.108   0.227   0.213   0.196
 1997 148     1   156    63      0      0      0     0     0    45    0.15   0.0   0.0   0.00   0.107   0.107   0.107   0.225   0.208   0.196
 1997 149     2   154    62      0      0      0     0     0    90    0.11   0.0   0.0   0.00   0.106   0.106   0.106   0.223   0.206   0.194
 1997 150     3   153    60      0      0      0     0     0    90    0.09   0.0   0.0   0.00   0.105   0.105   0.105   0.221   0.204   0.192
 1997 151     4   153    60      0      0      0     0     0    90    0.07   0.0   0.0   0.00   0.098   0.105   0.105   0.221   0.204   0.192
 1997 152     5   152    60      0      0      0     0     0    90    0.05   0.0   0.0   0.00   0.092   0.104   0.105   0.220   0.204   0.192
 1997 153     6   152    59      0      0      0     0     0    90    0.04   0.0   0.0   0.00   0.086   0.104   0.105   0.220   0.204   0.192
 1997 154     7   151    59      0      0      0     0     0    90    0.03   0.0   0.0   0.00   0.081   0.103   0.105   0.220   0.204   0.192
 1997 155     8   157    65      0      0      7     0     0    90    0.38   0.0   0.0   0.00   0.203   0.103   0.105   0.220   0.204   0.192
 1997 156     9   157    64      0      0      7     0     0    90    0.29   0.0   0.0   0.00   0.187   0.102   0.104   0.220   0.204   0.192
 1997 157    10   157    65      0      0      9     0     0    90    0.40   0.0   0.0   0.00   0.198   0.102   0.104   0.220   0.204   0.192
 1997 158    11   156    64      0      0      9     0     0    90    0.31   0.0   0.0   0.00   0.182   0.101   0.104   0.220   0.204   0.192
 1997 159    12   155    63      0      0      9     0     0    90    0.24   0.0   0.0   0.00   0.168   0.101   0.104   0.220   0.204   0.192
 1997 160    13   155    62      0      0      9     0     0    90    0.18   0.0   0.0   0.00   0.154   0.100   0.104   0.220   0.204   0.192
 1997 161    14   154    61      0      0      9     0     0    90    0.14   0.0   0.0   0.00   0.142   0.099   0.104   0.220   0.204   0.192
 1997 162    15   159    67      0      0     15     0     0    90    0.39   0.0   0.0   0.00   0.247   0.100   0.103   0.220   0.204   0.192
 1997 163    16   158    65      0      0     15     0     0    90    0.30   0.0   0.0   0.00   0.226   0.100   0.103   0.220   0.204   0.192
 1997 164    17   195   103      4      0     59     0     0    90    0.40   0.0   0.0   3.89   0.305   0.301   0.195   0.218   0.202   0.191
 1997 165    18   192    99      4      0     59     0     0    90    0.36   0.0   0.0   0.00   0.271   0.269   0.214   0.215   0.201   0.190
 1997 166    19   189    96      4      0     59     0     0    90    0.27   0.0   0.0   0.00   0.246   0.245   0.223   0.213   0.199   0.189
 1997 167    20   201   109      4      0     76     0     0    90    0.40   0.0   0.0   0.00   0.299   0.297   0.245   0.225   0.197   0.188
 1997 168    21   196   104      4      0     76     0     0    90    0.31   0.0   0.0   0.00   0.254   0.258   0.233   0.226   0.203   0.196
 1997 169    22   191    99      4      0     76     0     0    90    0.24   0.0   0.0   0.00   0.224   0.233   0.224   0.225   0.202   0.197
 1997 170    23   208   116      4      0     97     0     0    90    0.40   0.0   0.0   0.00   0.300   0.297   0.255   0.237   0.206   0.196
 1997 171    24   198   106      4      5     97     0     0    90    0.30   0.0   0.0   0.00   0.252   0.256   0.238   0.230   0.203   0.198
 1997 172    25   192    99      4      6     97     0     0    90    0.23   0.0   0.0   0.00   0.222   0.232   0.227   0.226   0.202   0.198
 1997 173    26   199   107      4      6    106     0     0    90    0.40   0.0   0.0   0.00   0.311   0.250   0.232   0.229   0.201   0.197
 1997 174    27   201   108      4      6    110     0     0    90    0.34   0.0   0.0   0.00   0.308   0.256   0.237   0.232   0.203   0.197
 1997 175    28   196   104      4      7    110     0     0    90    0.26   0.0   0.0   0.00   0.270   0.238   0.230   0.230   0.204   0.199
 1997 176    29   192   100      4      7    110     0     0    90    0.20   0.0   0.0   0.00   0.243   0.225   0.224   0.227   0.203   0.199
 1997 177    30   190    98      4      7    110     0     0    90    0.15   0.0   0.0   0.00   0.220   0.220   0.222   0.226   0.203   0.199
 1997 178    31   188    96      4      7    110     0     0    90    0.12   0.0   0.0   0.00   0.200   0.216   0.220   0.225   0.202   0.199
 1997 179    32   219   127      6      7    147     0     0    90    0.39   0.0   0.0   2.43   0.306   0.299   0.291   0.255   0.213   0.201
 1997 180    33   204   112      6     17    147     0     0    90    0.30   0.0   0.0   0.00   0.256   0.256   0.258   0.240   0.207   0.199
 1997 181    34   209   116      6     17    156     0     0    90    0.40   0.0   0.0   0.00   0.301   0.267   0.253   0.245   0.212   0.201
 1997 182    35   199   106      6     22    156     0     0    90    0.31   0.0   0.0   0.00   0.258   0.240   0.236   0.235   0.207   0.200
 1997 183    36   195   103      6     24    156     0     0    90    0.24   0.0   0.0   0.00   0.247   0.230   0.230   0.231   0.206   0.199
 1997 184    37   193   100      6     24    156     0     0    90    0.18   0.0   0.0   0.00   0.236   0.224   0.227   0.229   0.205   0.199
 1997 185    38   191    98      6     24    156     0     0    90    0.14   0.0   0.0   0.00   0.225   0.219   0.223   0.227   0.203   0.198
 1997 186    39   189    97      6     24    157     0     0    90    0.39   0.0   0.0   0.00   0.228   0.213   0.220   0.226   0.202   0.198
 1997 187    40   187    94      6     24    157     0     0    90    0.30   0.0   0.0   0.00   0.206   0.208   0.217   0.224   0.202   0.198
 1997 188    41   184    92      6     24    157     0     0    90    0.23   0.0   0.0   0.00   0.185   0.202   0.214   0.223   0.201   0.198
 1997 189    42   181    89      6     24    157     0     0    90    0.18   0.0   0.0   0.00   0.164   0.195   0.209   0.221   0.199   0.197
 1997 190    43   178    86      6     24    157     0     0    90    0.14   0.0   0.0   0.00   0.146   0.188   0.204   0.219   0.198   0.197
 1997 191    44   197   105      6     24    179     0     0    90    0.39   0.0   0.0   0.00   0.312   0.273   0.224   0.217   0.196   0.196
 1997 192    45   194   102      6     24    179     0     0    90    0.30   0.0   0.0   0.00   0.276   0.247   0.224   0.227   0.198   0.196
 1997 193    46   191    99      6     24    181     0     0    90    0.40   0.0   0.0   0.00   0.268   0.233   0.223   0.224   0.195   0.195
 1997 194    47   186    94      6     24    181     0     0    90    0.31   0.0   0.0   0.00   0.240   0.217   0.218   0.220   0.192   0.193
 1997 195    48   208   115      7     24    208     0     0    90    0.41   0.0   0.0   0.41   0.302   0.295   0.266   0.238   0.198   0.193
 1997 196    49   243   150     19     28    262     0     0    86    0.36   0.0   0.0  12.07   0.312   0.300   0.291   0.295   0.286   0.222
 1997 197    50   237   144     19     34    263     0     0    84    0.40   0.0   0.0   0.00   0.294   0.274   0.277   0.288   0.277   0.227
 1997 198    51   216   124     19     50    263     0     0    87    0.30   0.0   0.0   0.00   0.264   0.246   0.251   0.261   0.246   0.216
 1997 199    52   204   111     19     59    263     0     0    88    0.23   0.0   0.0   0.00   0.246   0.229   0.236   0.245   0.227   0.208
 1997 200    53   196   103     19     63    263     0     0    89    0.18   0.0   0.0   0.00   0.229   0.218   0.226   0.235   0.216   0.204
 1997 201    54   193   100     19     64    263     0     0    89    0.27   0.0   0.0   0.00   0.225   0.211   0.221   0.230   0.211   0.203
 1997 202    55   191    99     19     64    264     0     0    90    0.37   0.0   0.0   0.00   0.229   0.207   0.218   0.229   0.208   0.202
 1997 203    56   186    93     19     64    264     0     0    90    0.28   0.0   0.0   0.00   0.207   0.193   0.209   0.224   0.204   0.201
 1997 204    57   186    94     19     64    269     0     0    90    0.41   0.0   0.0   0.00   0.271   0.192   0.202   0.220   0.202   0.200
 1997 205    58   184    91     19     64    270     0     0    90    0.36   0.0   0.0   0.00   0.267   0.190   0.196   0.217   0.199   0.199
 1997 206    59   179    87     19     64    270     0     0    90    0.27   0.0   0.0   0.00   0.242   0.180   0.188   0.212   0.196   0.198
 1997 207    60   174    82     19     64    270     0     0    90    0.21   0.0   0.0   0.00   0.212   0.168   0.180   0.209   0.194   0.198
 1997 208    61   170    77     19     64    270     0     0    90    0.16   0.0   0.0   0.00   0.186   0.158   0.173   0.205   0.192   0.197
 1997 209    62   165    72     19     64    270     0     0    90    0.12   0.0   0.0   0.00   0.160   0.146   0.165   0.201   0.189   0.197
 1997 210    63   168    76     19     64    277     0     0    90    0.40   0.0   0.0   0.00   0.251   0.144   0.161   0.199   0.187   0.196
 1997 211    64   181    89     19     64    292     0     0    90    0.33   0.0   0.0   0.00   0.313   0.243   0.167   0.197   0.186   0.196
 1997 212    65   180    87     19     64    292     0     0    90    0.25   0.0   0.0   0.00   0.283   0.232   0.176   0.196   0.185   0.196
 1997 213    66   178    86     19     64    294     0     0    90    0.42   0.0   0.0   0.00   0.276   0.228   0.175   0.194   0.184   0.195
 1997 214    67   173    80     19     64    294     0     0    90    0.32   0.0   0.0   0.00   0.248   0.215   0.169   0.189   0.180   0.194
 1997 215    68   168    76     19     64    294     0     0    90    0.24   0.0   0.0   0.00   0.218   0.204   0.162   0.186   0.178   0.194
 1997 216    69   166    73     19     64    294     0     0    90    0.18   0.0   0.0   0.00   0.197   0.198   0.158   0.184   0.178   0.193
 1997 217    70   207   115     28     64    348     0     0    90    0.42   0.0   0.0   8.75   0.310   0.297   0.290   0.228   0.178   0.193
 1997 218    71   205   112     28     65    348     0     0    90    0.33   0.0   0.0   0.00   0.282   0.265   0.262   0.227   0.204   0.200
 1997 219    72   198   105     28     69    348     0     0    90    0.25   0.0   0.0   0.00   0.261   0.242   0.243   0.226   0.203   0.199
 1997 220    73   192   100     28     70    348     0     0    90    0.19   0.0   0.0   0.00   0.240   0.222   0.228   0.224   0.202   0.199
 1997 221    74   189    96     28     70    348     0     0    90    0.14   0.0   0.0   0.00   0.227   0.214   0.222   0.221   0.200   0.198
 1997 222    75   184    91     28     70    348     0     0    90    0.11   0.0   0.0   0.00   0.198   0.201   0.214   0.217   0.197   0.198
 1997 223    76   179    86     28     70    348     0     0    90    0.08   0.0   0.0   0.00   0.171   0.189   0.206   0.213   0.194   0.197
 1997 224    77   175    82     28     70    348     0     0    90    0.06   0.0   0.0   0.00   0.149   0.179   0.199   0.210   0.192   0.197
 1997 225    78   171    78     28     70    348     0     0    90    0.05   0.0   0.0   0.00   0.130   0.168   0.192   0.207   0.190   0.196
 1997 226    79   167    74     28     70    348     0     0    90    0.04   0.0   0.0   0.00   0.120   0.156   0.185   0.203   0.187   0.196
 1997 227    80   169    76     28     70    352     0     0    90    0.42   0.0   0.0   0.00   0.197   0.151   0.181   0.202   0.186   0.196
 1997 228    81   165    72     28     70    352     0     0    90    0.31   0.0   0.0   0.00   0.172   0.140   0.174   0.198   0.184   0.195
 1997 229    82   161    69     28     70    352     0     0    90    0.24   0.0   0.0   0.00   0.152   0.133   0.169   0.196   0.182   0.195
 1997 230    83   207   114     38     70    412     0     0    90    0.44   0.0   0.0  10.13   0.306   0.295   0.280   0.229   0.182   0.194
 1997 231    84   200   108     38     71    412     0     0    90    0.33   0.0   0.0   0.00   0.268   0.255   0.251   0.225   0.202   0.199
 1997 232    85   194   102     38     73    412     0     0    90    0.25   0.0   0.0   0.00   0.246   0.232   0.234   0.225   0.202   0.199
 1997 233    86   207   114     38     73    432     0     0    90    0.44   0.0   0.0   0.00   0.297   0.289   0.252   0.235   0.204   0.199
 1997 234    87   199   106     38     77    432     0     0    90    0.33   0.0   0.0   0.00   0.267   0.254   0.236   0.229   0.203   0.199
 1997 235    88   196   103     38     78    432     0     0    90    0.25   0.0   0.0   0.00   0.257   0.239   0.230   0.228   0.204   0.200
 1997 236    89   192   100     38     78    432     0     0    90    0.18   0.0   0.0   0.00   0.242   0.224   0.223   0.226   0.203   0.199
 1997 237    90   199   107     38     78    445     0     0    90    0.44   0.0   0.0   0.00   0.301   0.264   0.230   0.227   0.201   0.198
 1997 238    91   195   102     38     79    445     0     0    90    0.33   0.0   0.0   0.00   0.269   0.240   0.223   0.226   0.203   0.199
 1997 239    92   198   106     38     79    453     0     0    90    0.46   0.0   0.0   0.00   0.305   0.253   0.228   0.227   0.200   0.198
 1997 240    93   196   103     38     80    453     0     0    90    0.34   0.0   0.0   0.00   0.277   0.237   0.224   0.227   0.204   0.200
 1997 241    94   202   110     38     80    465     0     0    90    0.46   0.0   0.0   0.00   0.300   0.279   0.234   0.229   0.203   0.198
 1997 242    95   195   102     38     82    465     0     0    90    0.34   0.0   0.0   0.00   0.264   0.245   0.223   0.225   0.202   0.199
 1997 243    96   190    97     38     82    465     0     0    90    0.25   0.0   0.0   0.00   0.241   0.224   0.219   0.221   0.199   0.198
 1997 244    97   185    93     38     82    465     0     0    90    0.19   0.0   0.0   0.00   0.212   0.213   0.212   0.217   0.196   0.197
 1997 245    98   181    88     38     82    465     0     0    90    0.14   0.0   0.0   0.00   0.186   0.203   0.205   0.214   0.194   0.197
 1997 246    99   179    86     38     82    466     0     0    90    0.32   0.0   0.0   0.00   0.177   0.197   0.202   0.212   0.193   0.197
 1997 247   100   181    89     38     82    472     0     0    90    0.39   0.0   0.0   0.00   0.256   0.196   0.198   0.210   0.192   0.196
 1997 248   101   197   105     38     82    492     0     0    90    0.42   0.0   0.0   0.00   0.304   0.294   0.226   0.210   0.189   0.196
 1997 249   102   194   101     38     82    492     0     0    90    0.31   0.0   0.0   0.00   0.272   0.259   0.222   0.226   0.191   0.195

*DSSAT Cropping System Model Ver. 4.5.1.023 -Stub         NOV 08, 2014; 00:45:26
                                                                                
*RUN   2        : 97 DATE1 F-MIX            CRGRO045 GHNY9701    2              
 MODEL          : CRGRO045 - Peanut                                             
 EXPERIMENT     : GHNY9701 PN 1997 VARIETY X PLANTING DATE EXPERIMENT           
 DATA PATH      :                                                               
 TREATMENT  2   : 97 DATE1 F-MIX            CRGRO045                            
  
!                                                                                                 Soil water content (mm3/mm3) by soil depth (cm):
!                                                                                                 0-5    5-15   15-30   30-45   45-60   60-90
@YEAR DOY   DAS  SWTD  SWXD   ROFC   DRNC   PREC  IR#C  IRRC  DTWT    MWTD  TDFD  TDFC   ROFD    SW1D    SW2D    SW3D    SW4D    SW5D    SW6D    
 1997 147     0   157    65      0      0      0     0     0     0    0.19   0.0   0.0   0.00   0.108   0.108   0.108   0.227   0.213   0.196
 1997 148     1   156    63      0      0      0     0     0    45    0.15   0.0   0.0   0.00   0.107   0.107   0.107   0.225   0.208   0.196
 1997 149     2   154    62      0      0      0     0     0    90    0.11   0.0   0.0   0.00   0.106   0.106   0.106   0.223   0.206   0.194
 1997 150     3   153    60      0      0      0     0     0    90    0.09   0.0   0.0   0.00   0.105   0.105   0.105   0.221   0.204   0.192
 1997 151     4   153    60      0      0      0     0     0    90    0.07   0.0   0.0   0.00   0.098   0.105   0.105   0.221   0.204   0.192
 1997 152     5   152    60      0      0      0     0     0    90    0.05   0.0   0.0   0.00   0.092   0.104   0.105   0.220   0.204   0.192
 1997 153     6   152    59      0      0      0     0     0    90    0.04   0.0   0.0   0.00   0.086   0.104   0.105   0.220   0.204   0.192
 1997 154     7   151    59      0      0      0     0     0    90    0.03   0.0   0.0   0.00   0.081   0.103   0.105   0.220   0.204   0.192
 1997 155     8   157    65      0      0      7     0     0    90    0.38   0.0   0.0   0.00   0.203   0.103   0.105   0.220   0.204   0.192
 1997 156     9   157    64      0      0      7     0     0    90    0.29   0.0   0.0   0.00   0.187   0.102   0.104   0.220   0.204   0.192
 1997 157    10   157    65      0      0      9     0     0    90    0.40   0.0   0.0   0.00   0.198   0.102   0.104   0.220   0.204   0.192
 1997 158    11   156    64      0      0      9     0     0    90    0.31   0.0   0.0   0.00   0.182   0.101   0.104   0.220   0.204   0.192
 1997 159    12   155    63      0      0      9     0     0    90    0.24   0.0   0.0   0.00   0.168   0.101   0.104   0.220   0.204   0.192
 1997 160    13   154    62      0      0      9     0     0    90    0.18   0.0   0.0   0.00   0.154   0.100   0.104   0.220   0.204   0.192
 1997 161    14   154    61      0      0      9     0     0    90    0.14   0.0   0.0   0.00   0.142   0.099   0.103   0.220   0.204   0.192
 1997 162    15   159    67      0      0     15     0     0    90    0.39   0.0   0.0   0.00   0.247   0.100   0.103   0.220   0.204   0.192
 1997 163    16   158    65      0      0     15     0     0    90    0.30   0.0   0.0   0.00   0.226   0.100   0.103   0.220   0.204   0.192
 1997 164    17   195   103      4      0     59     0     0    90    0.40   0.0   0.0   3.89   0.305   0.301   0.195   0.218   0.202   0.191
 1997 165    18   192    99      4      0     59     0     0    90    0.36   0.0   0.0   0.00   0.271   0.269   0.214   0.215   0.201   0.190
 1997 166    19   189    96      4      0     59     0     0    90    0.27   0.0   0.0   0.00   0.246   0.245   0.223   0.213   0.199   0.189
 1997 167    20   201   109      4      0     76     0     0    90    0.40   0.0   0.0   0.00   0.299   0.297   0.245   0.225   0.197   0.188
 1997 168    21   196   104      4      0     76     0     0    90    0.31   0.0   0.0   0.00   0.254   0.258   0.233   0.226   0.203   0.196
 1997 169    22   191    99      4      0     76     0     0    90    0.24   0.0   0.0   0.00   0.224   0.233   0.224   0.225   0.202   0.197
 1997 170    23   208   116      4      0     97     0     0    90    0.40   0.0   0.0   0.00   0.300   0.297   0.255   0.237   0.206   0.196
 1997 171    24   198   106      4      5     97     0     0    90    0.30   0.0   0.0   0.00   0.252   0.256   0.238   0.230   0.203   0.198
 1997 172    25   192    99      4      6     97     0     0    90    0.23   0.0   0.0   0.00   0.222   0.232   0.227   0.226   0.202   0.198
 1997 173    26   199   107      4      6    106     0     0    90    0.40   0.0   0.0   0.00   0.311   0.250   0.232   0.229   0.201   0.197
 1997 174    27   201   108      4      6    110     0     0    90    0.34   0.0   0.0   0.00   0.308   0.256   0.237   0.232   0.203   0.197
 1997 175    28   196   104      4      7    110     0     0    90    0.26   0.0   0.0   0.00   0.270   0.238   0.230   0.230   0.204   0.199
 1997 176    29   192   100      4      7    110     0     0    90    0.20   0.0   0.0   0.00   0.242   0.225   0.224   0.227   0.203   0.199
 1997 177    30   190    98      4      7    110     0     0    90    0.15   0.0   0.0   0.00   0.220   0.220   0.222   0.226   0.203   0.199
 1997 178    31   188    96      4      7    110     0     0    90    0.12   0.0   0.0   0.00   0.199   0.216   0.220   0.225   0.202   0.199
 1997 179    32   219   127      6      7    147     0     0    90    0.39   0.0   0.0   2.43   0.306   0.298   0.291   0.255   0.213   0.201
 1997 180    33   204   112      6     17    147     0     0    90    0.30   0.0   0.0   0.00   0.256   0.256   0.257   0.241   0.207   0.199
 1997 181    34   209   116      6     17    156     0     0    90    0.40   0.0   0.0   0.00   0.301   0.267   0.253   0.245   0.212   0.201
 1997 182    35   199   106      6     22    156     0     0    90    0.31   0.0   0.0   0.00   0.258   0.239   0.236   0.235   0.207   0.200
 1997 183    36   195   103      6     24    156     0     0    90    0.24   0.0   0.0   0.00   0.247   0.229   0.230   0.231   0.206   0.199
 1997 184    37   193   100      6     24    156     0     0    90    0.18   0.0   0.0   0.00   0.236   0.224   0.227   0.229   0.205   0.199
 1997 185    38   191    98      6     24    156     0     0    90    0.14   0.0   0.0   0.00   0.225   0.218   0.223   0.227   0.203   0.198
 1997 186    39   189    97      6     24    157     0     0    90    0.39   0.0   0.0   0.00   0.228   0.213   0.220   0.226   0.203   0.198
 1997 187    40   187    94      6     24    157     0     0    90    0.30   0.0   0.0   0.00   0.205   0.207   0.217   0.225   0.202   0.198
 1997 188    41   184    92      6     24    157     0     0    90    0.23   0.0   0.0   0.00   0.184   0.201   0.213   0.223   0.201   0.198
 1997 189    42   181    89      6     24    157     0     0    90    0.18   0.0   0.0   0.00   0.163   0.193   0.208   0.221   0.200   0.198
 1997 190    43   178    86      6     24    157     0     0    90    0.14   0.0   0.0   0.00   0.145   0.186   0.203   0.219   0.198   0.197
 1997 191    44   197   104      6     24    179     0     0    90    0.39   0.0   0.0   0.00   0.312   0.271   0.222   0.217   0.197   0.197
 1997 192    45   194   102      6     24    179     0     0    90    0.30   0.0   0.0   0.00   0.277   0.246   0.224   0.227   0.196   0.196
 1997 193    46   191    99      6     24    181     0     0    90    0.40   0.0   0.0   0.00   0.268   0.232   0.223   0.224   0.193   0.195
 1997 194    47   186    93      6     24    181     0     0    90    0.31   0.0   0.0   0.00   0.240   0.217   0.217   0.220   0.191   0.194
 1997 195    48   207   115      7     24    208     0     0    90    0.41   0.0   0.0   0.41   0.302   0.294   0.266   0.238   0.196   0.193
 1997 196    49   243   150     19     28    262     0     0    86    0.36   0.0   0.0  12.07   0.312   0.300   0.291   0.295   0.286   0.222
 1997 197    50   236   144     19     34    263     0     0    84    0.40   0.0   0.0   0.00   0.295   0.274   0.277   0.288   0.277   0.227
 1997 198    51   216   124     19     50    263     0     0    87    0.30   0.0   0.0   0.00   0.265   0.246   0.251   0.261   0.246   0.215
 1997 199    52   204   111     19     59    263     0     0    88    0.23   0.0   0.0   0.00   0.246   0.229   0.236   0.245   0.227   0.208
 1997 200    53   196   103     19     63    263     0     0    89    0.18   0.0   0.0   0.00   0.230   0.218   0.226   0.235   0.216   0.204
 1997 201    54   193   100     19     63    263     0     0    89    0.28   0.0   0.0   0.00   0.226   0.211   0.221   0.230   0.211   0.203
 1997 202    55   191    99     19     64    264     0     0    90    0.37   0.0   0.0   0.00   0.231   0.207   0.218   0.229   0.208   0.202
 1997 203    56   186    93     19     64    264     0     0    90    0.28   0.0   0.0   0.00   0.209   0.193   0.209   0.224   0.204   0.201
 1997 204    57   186    94     19     64    269     0     0    90    0.41   0.0   0.0   0.00   0.273   0.192   0.202   0.220   0.202   0.200
 1997 205    58   184    91     19     64    270     0     0    90    0.36   0.0   0.0   0.00   0.269   0.190   0.195   0.217   0.200   0.199
 1997 206    59   179    87     19     64    270     0     0    90    0.27   0.0   0.0   0.00   0.244   0.180   0.187   0.212   0.196   0.198
 1997 207    60   174    82     19     64    270     0     0    90    0.21   0.0   0.0   0.00   0.214   0.168   0.179   0.209   0.194   0.198
 1997 208    61   170    77     19     64    270     0     0    90    0.16   0.0   0.0   0.00   0.187   0.157   0.172   0.205   0.192   0.197
 1997 209    62   164    72     19     64    270     0     0    90    0.12   0.0   0.0   0.00   0.160   0.144   0.163   0.201   0.189   0.197
 1997 210    63   167    75     19     64    277     0     0    90    0.41   0.0   0.0   0.00   0.253   0.141   0.159   0.199   0.187   0.197
 1997 211    64   181    88     19     64    292     0     0    90    0.34   0.0   0.0   0.00   0.313   0.242   0.164   0.197   0.186   0.196
 1997 212    65   179    86     19     64    292     0     0    90    0.27   0.0   0.0   0.00   0.284   0.231   0.173   0.195   0.185   0.196
 1997 213    66   178    85     19     64    294     0     0    90    0.41   0.0   0.0   0.00   0.278   0.228   0.172   0.193   0.183   0.195
 1997 214    67   172    80     19     64    294     0     0    90    0.31   0.0   0.0   0.00   0.250   0.215   0.166   0.189   0.180   0.194
 1997 215    68   168    75     19     64    294     0     0    90    0.23   0.0   0.0   0.00   0.222   0.203   0.159   0.185   0.178   0.194
 1997 216    69   165    73     19     64    294     0     0    90    0.18   0.0   0.0   0.00   0.205   0.197   0.154   0.183   0.177   0.194
 1997 217    70   207   114     28     64    348     0     0    90    0.42   0.0   0.0   8.80   0.311   0.297   0.289   0.226   0.176   0.193
 1997 218    71   205   112     28     65    348     0     0    90    0.36   0.0   0.0   0.00   0.283   0.264   0.262   0.227   0.204   0.200
 1997 219    72   198   105     28     68    348     0     0    90    0.27   0.0   0.0   0.00   0.262   0.242   0.243   0.226   0.203   0.199
 1997 220    73   192   100     28     69    348     0     0    90    0.21   0.0   0.0   0.00   0.242   0.222   0.228   0.224   0.202   0.199
 1997 221    74   189    96     28     69    348     0     0    90    0.15   0.0   0.0   0.00   0.223   0.214   0.222   0.222   0.200   0.199
 1997 222    75   184    91     28     69    348     0     0    90    0.12   0.0   0.0   0.00   0.194   0.201   0.214   0.218   0.197   0.198
 1997 223    76   179    86     28     69    348     0     0    90    0.09   0.0   0.0   0.00   0.167   0.189   0.206   0.214   0.194   0.198
 1997 224    77   175    82     28     69    348     0     0    90    0.07   0.0   0.0   0.00   0.145   0.179   0.199   0.211   0.192   0.197
 1997 225    78   170    78     28     69    348     0     0    90    0.05   0.0   0.0   0.00   0.129   0.167   0.192   0.207   0.190   0.197
 1997 226    79   166    74     28     69    348     0     0    90    0.04   0.0   0.0   0.00   0.118   0.155   0.183   0.203   0.187   0.196
 1997 227    80   169    76     28     69    352     0     0    90    0.42   0.0   0.0   0.00   0.199   0.149   0.180   0.201   0.186   0.196
 1997 228    81   164    72     28     69    352     0     0    90    0.32   0.0   0.0   0.00   0.176   0.138   0.172   0.198   0.183   0.195
 1997 229    82   161    69     28     69    352     0     0    90    0.24   0.0   0.0   0.00   0.159   0.131   0.167   0.195   0.181   0.195
 1997 230    83   206   114     38     69    412     0     0    90    0.45   0.0   0.0  10.11   0.299   0.295   0.280   0.229   0.181   0.195
 1997 231    84   200   108     38     71    412     0     0    90    0.33   0.0   0.0   0.00   0.266   0.255   0.250   0.225   0.202   0.199
 1997 232    85   194   102     38     72    412     0     0    90    0.25   0.0   0.0   0.00   0.247   0.232   0.233   0.225   0.202   0.199
 1997 233    86   207   114     38     72    432     0     0    90    0.45   0.0   0.0   0.00   0.300   0.289   0.251   0.234   0.204   0.199
 1997 234    87   199   106     38     76    432     0     0    90    0.34   0.0   0.0   0.00   0.270   0.254   0.235   0.229   0.203   0.199
 1997 235    88   196   103     38     78    432     0     0    90    0.29   0.0   0.0   0.00   0.260   0.239   0.229   0.228   0.204   0.200
 1997 236    89   192   100     38     78    432     0     0    90    0.21   0.0   0.0   0.00   0.247   0.224   0.222   0.226   0.203   0.199
 1997 237    90   200   107     38     78    445     0     0    90    0.46   0.0   0.0   0.00   0.304   0.265   0.229   0.226   0.201   0.198
 1997 238    91   195   102     38     79    445     0     0    90    0.34   0.0   0.0   0.00   0.273   0.240   0.222   0.226   0.203   0.199
 1997 239    92   198   106     38     79    453     0     0    90    0.47   0.0   0.0   0.00   0.308   0.254   0.227   0.226   0.200   0.199
 1997 240    93   196   103     38     79    453     0     0    90    0.40   0.0   0.0   0.00   0.280   0.237   0.224   0.227   0.204   0.200
 1997 241    94   203   110     38     79    465     0     0    90    0.41   0.0   0.0   0.00   0.304   0.280   0.234   0.229   0.203   0.199
 1997 242    95   195   102     38     82    465     0     0    90    0.30   0.0   0.0   0.00   0.268   0.245   0.222   0.224   0.202   0.199
 1997 243    96   190    97     38     82    465     0     0    90    0.22   0.0   0.0   0.00   0.246   0.224   0.218   0.220   0.198   0.198
 1997 244    97   185    93     38     82    465     0     0    90    0.16   0.0   0.0   0.00   0.222   0.212   0.211   0.217   0.196   0.198
 1997 245    98   181    88     38     82    465     0     0    90    0.12   0.0   0.0   0.00   0.200   0.202   0.204   0.213   0.193   0.197
 1997 246    99   179    86     38     82    466     0     0    90    0.31   0.0   0.0   0.00   0.195   0.195   0.200   0.211   0.192   0.197
 1997 247   100   181    89     38     82    472     0     0    90    0.41   0.0   0.0   0.00   0.273   0.197   0.195   0.209   0.190   0.197
 1997 248   101   197   105     38     82    492     0     0    90    0.43   0.0   0.0   0.00   0.307   0.294   0.228   0.210   0.188   0.196
 1997 249   102   194   102     38     82    492     0     0    90    0.33   0.0   0.0   0.00   0.276   0.258   0.222   0.226   0.191   0.195
 1997 250   103   190    98     38     82    492     0     0    90    0.24   0.0   0.0   0.00   0.255   0.235   0.221   0.225   0.190   0.195
 1997 251   104   211   118     38     82    519     0     0    90    0.49   0.0   0.0   0.34   0.303   0.291   0.277   0.245   0.201   0.194
 1997 252   105   225   133     38     82    537     0     0    90    0.43   0.0   0.0   0.00   0.313   0.298   0.290   0.285   0.224   0.200
 1997 253   106   224   132     38     83    540     0     0    89    0.45   0.0   0.0   0.00   0.310   0.278   0.275   0.281   0.236   0.206
 1997 254   107   209   116     38     95    540     0     0    89    0.33   0.0   0.0   0.00   0.277   0.248   0.250   0.257   0.221   0.203
 1997 255   108   198   106     38    100    540     0     0    90    0.24   0.0   0.0   0.00   0.253   0.227   0.232   0.241   0.212   0.201
 1997 256   109   227   135     41    102    579     0     0    89    0.50   0.0   0.0   2.96   0.304   0.292   0.285   0.291   0.232   0.206
 1997 257   110   211   118     41    115    579     0     0    89    0.37   0.0   0.0   0.00   0.273   0.256   0.256   0.263   0.219   0.203
 1997 258   111   212   119     41    116    587     0     0    89    0.50   0.0   0.0   0.00   0.305   0.261   0.248   0.256   0.223   0.205
 1997 259   112   201   108     41    123    587     0     0    90    0.36   0.0   0.0   0.00   0.271   0.235   0.232   0.241   0.213   0.202
 1997 260   113   212   119     41    123    604     0     0    89    0.52   0.0   0.0   0.00   0.305   0.293   0.249   0.244   0.214   0.203
 1997 261   114   224   132     41    125    620     0     0    89    0.51   0.0   0.0   0.00   0.316   0.301   0.292   0.264   0.224   0.206
 1997 262   115   209   116     41    136    620     0     0    89    0.37   0.0   0.0   0.00   0.280   0.261   0.259   0.247   0.214   0.203
 1997 263   116   200   108     41    142    620     0     0    90    0.27   0.0   0.0   0.00   0.259   0.238   0.240   0.236   0.208   0.202
 1997 264   117   192   100     41    144    620     0     0    90    0.19   0.0   0.0   0.00   0.239   0.217   0.224   0.228   0.203   0.201
 1997 265   118   211   118     41    144    644     0     0    90    0.51   0.0   0.0   0.01   0.306   0.293   0.259   0.240   0.207   0.202
 1997 266   119   203   111     41    150    644     0     0    90    0.44   0.0   0.0   0.00   0.281   0.262   0.243   0.234   0.206   0.201
 1997 267   120   203   111     41    150    649     0     0    90    0.42   0.0   0.0   0.00   0.306   0.252   0.239   0.235   0.207   0.202
 1997 268   121   198   106     41    153    649     0     0    90    0.35   0.0   0.0   0.00   0.280   0.237   0.231   0.231   0.205   0.202
 1997 269   122   194   101     41    154    649     0     0    90    0.25   0.0   0.0   0.00   0.258   0.222   0.224   0.227   0.203   0.201
 1997 270   123   235   143     57    157    717     0     0    87    0.52   0.0   0.0  16.16   0.301   0.290   0.284   0.291   0.273   0.214

*DSSAT Cropping System Model Ver. 4.5.1.023 -Stub         NOV 08, 2014; 00:45:26
                                                                                
*RUN   3        : 97 DATE2 CHINESE          CRGRO045 GHNY9701    3              
 MODEL          : CRGRO045 - Peanut                                             
 EXPERIMENT     : GHNY9701 PN 1997 VARIETY X PLANTING DATE EXPERIMENT           
 DATA PATH      :                                                               
 TREATMENT  3   : 97 DATE2 CHINESE          CRGRO045                            
  
!                                                                                                 Soil water content (mm3/mm3) by soil depth (cm):
!                                                                                                 0-5    5-15   15-30   30-45   45-60   60-90
@YEAR DOY   DAS  SWTD  SWXD   ROFC   DRNC   PREC  IR#C  IRRC  DTWT    MWTD  TDFD  TDFC   ROFD    SW1D    SW2D    SW3D    SW4D    SW5D    SW6D    
 1997 175     0   203   110      0      0      0     0     0     0    0.19   0.0   0.0   0.00   0.225   0.225   0.225   0.232   0.216   0.226
 1997 176     1   197   104      0      2      0     0     0    45    0.15   0.0   0.0   0.00   0.206   0.217   0.221   0.229   0.214   0.218
 1997 177     2   192   100      0      2      0     0     0    90    0.11   0.0   0.0   0.00   0.181   0.207   0.215   0.225   0.211   0.216
 1997 178     3   191    99      0      2      0     0     0    90    0.09   0.0   0.0   0.00   0.167   0.206   0.214   0.225   0.211   0.216
 1997 179     4   220   127      2      5     37     0     0    89    0.39   0.0   0.0   2.10   0.284   0.267   0.264   0.256   0.232   0.220
 1997 180     5   203   110      2     17     37     0     0    90    0.30   0.0   0.0   0.00   0.236   0.230   0.234   0.235   0.219   0.215
 1997 181     6   207   114      2     18     46     0     0    90    0.40   0.0   0.0   0.00   0.278   0.240   0.235   0.235   0.221   0.217
 1997 182     7   199   106      2     21     46     0     0    90    0.31   0.0   0.0   0.00   0.239   0.223   0.225   0.228   0.215   0.215
 1997 183     8   198   105      2     21     46     0     0    90    0.24   0.0   0.0   0.00   0.220   0.222   0.225   0.228   0.215   0.215
 1997 184     9   197   104      2     21     46     0     0    90    0.18   0.0   0.0   0.00   0.202   0.220   0.225   0.228   0.215   0.215
 1997 185    10   196   103      2     21     46     0     0    90    0.14   0.0   0.0   0.00   0.186   0.219   0.225   0.228   0.215   0.215
 1997 186    11   196   104      2     21     47     0     0    90    0.39   0.0   0.0   0.00   0.197   0.218   0.224   0.228   0.215   0.215
 1997 187    12   195   103      2     21     47     0     0    90    0.30   0.0   0.0   0.00   0.182   0.217   0.224   0.228   0.215   0.215
 1997 188    13   194   102      2     21     47     0     0    90    0.23   0.0   0.0   0.00   0.167   0.215   0.224   0.228   0.215   0.215
 1997 189    14   193   101      2     21     47     0     0    90    0.18   0.0   0.0   0.00   0.154   0.214   0.223   0.227   0.215   0.215
 1997 190    15   192   100      2     21     47     0     0    90    0.14   0.0   0.0   0.00   0.142   0.212   0.223   0.227   0.215   0.215
 1997 191    16   211   118      2     22     69     0     0    90    0.39   0.0   0.0   0.00   0.287   0.264   0.241   0.237   0.221   0.217
 1997 192    17   202   110      2     28     69     0     0    90    0.30   0.0   0.0   0.00   0.252   0.234   0.230   0.230   0.216   0.216
 1997 193    18   199   107      2     28     71     0     0    90    0.40   0.0   0.0   0.00   0.243   0.223   0.226   0.228   0.215   0.215
 1997 194    19   198   106      2     28     71     0     0    90    0.31   0.0   0.0   0.00   0.223   0.221   0.225   0.228   0.215   0.215
 1997 195    20   217   125      2     31     98     0     0    89    0.40   0.0   0.0   0.37   0.276   0.264   0.261   0.250   0.229   0.219
 1997 196    21   236   144     14     53    152     0     0    81    0.36   0.0   0.0  11.31   0.287   0.268   0.264   0.267   0.259   0.254
 1997 197    22   222   129     14     66    153     0     0    85    0.39   0.0   0.0   0.00   0.267   0.243   0.247   0.255   0.248   0.239
 1997 198    23   205   113     14     80    153     0     0    88    0.30   0.0   0.0   0.00   0.241   0.225   0.230   0.235   0.225   0.223
 1997 199    24   199   106     14     83    153     0     0    90    0.23   0.0   0.0   0.00   0.222   0.217   0.226   0.228   0.217   0.217
 1997 200    25   195   102     14     83    153     0     0    90    0.18   0.0   0.0   0.00   0.201   0.208   0.220   0.225   0.215   0.215
 1997 201    26   194   101     14     83    153     0     0    90    0.27   0.0   0.0   0.00   0.191   0.206   0.219   0.225   0.215   0.215
 1997 202    27   193   101     14     83    154     0     0    90    0.36   0.0   0.0   0.00   0.187   0.205   0.219   0.225   0.215   0.215
 1997 203    28   191    99     14     83    154     0     0    90    0.27   0.0   0.0   0.00   0.170   0.201   0.217   0.224   0.215   0.215
 1997 204    29   195   102     14     83    159     0     0    90    0.40   0.0   0.0   0.00   0.243   0.201   0.215   0.224   0.214   0.215
 1997 205    30   194   102     14     83    160     0     0    90    0.35   0.0   0.0   0.00   0.240   0.202   0.214   0.223   0.214   0.215
 1997 206    31   192   100     14     83    160     0     0    90    0.27   0.0   0.0   0.00   0.218   0.198   0.211   0.222   0.213   0.215
 1997 207    32   190    98     14     83    160     0     0    90    0.21   0.0   0.0   0.00   0.197   0.194   0.209   0.221   0.213   0.215
 1997 208    33   188    96     14     83    160     0     0    90    0.16   0.0   0.0   0.00   0.179   0.189   0.207   0.220   0.212   0.215
 1997 209    34   186    94     14     83    160     0     0    90    0.12   0.0   0.0   0.00   0.161   0.184   0.204   0.219   0.212   0.215
 1997 210    35   191    98     14     83    167     0     0    90    0.39   0.0   0.0   0.00   0.249   0.189   0.202   0.218   0.211   0.215
 1997 211    36   204   111     14     83    182     0     0    90    0.32   0.0   0.0   0.00   0.287   0.254   0.230   0.226   0.210   0.214
 1997 212    37   201   109     14     83    182     0     0    90    0.24   0.0   0.0   0.00   0.258   0.232   0.227   0.228   0.215   0.215
 1997 213    38   200   107     14     83    184     0     0    90    0.40   0.0   0.0   0.00   0.253   0.225   0.226   0.228   0.214   0.215
 1997 214    39   197   104     14     83    184     0     0    90    0.31   0.0   0.0   0.00   0.227   0.218   0.222   0.226   0.213   0.214
 1997 215    40   194   101     14     83    184     0     0    90    0.23   0.0   0.0   0.00   0.204   0.212   0.218   0.225   0.212   0.214
 1997 216    41   192    99     14     83    184     0     0    90    0.18   0.0   0.0   0.00   0.185   0.208   0.215   0.224   0.211   0.214
 1997 217    42   226   134     23     90    238     0     0    87    0.39   0.0   0.0   8.93   0.285   0.265   0.262   0.266   0.254   0.227
 1997 218    43   208   116     23    106    238     0     0    89    0.30   0.0   0.0   0.00   0.259   0.236   0.237   0.240   0.228   0.220
 1997 219    44   201   108     23    111    238     0     0    90    0.23   0.0   0.0   0.00   0.245   0.223   0.227   0.230   0.219   0.216
 1997 220    45   196   103     23    111    238     0     0    90    0.18   0.0   0.0   0.00   0.221   0.210   0.218   0.226   0.215   0.215
 1997 221    46   193   100     23    111    238     0     0    90    0.14   0.0   0.0   0.00   0.199   0.204   0.215   0.224   0.214   0.215
 1997 222    47   189    97     23    111    238     0     0    90    0.10   0.0   0.0   0.00   0.175   0.195   0.209   0.222   0.213   0.214
 1997 223    48   185    93     23    111    238     0     0    90    0.08   0.0   0.0   0.00   0.154   0.185   0.203   0.219   0.211   0.214
 1997 224    49   182    90     23    111    238     0     0    90    0.06   0.0   0.0   0.00   0.136   0.178   0.198   0.217   0.209   0.214
 1997 225    50   179    87     23    111    238     0     0    90    0.05   0.0   0.0   0.00   0.124   0.169   0.192   0.214   0.207   0.213
 1997 226    51   176    83     23    111    238     0     0    90    0.04   0.0   0.0   0.00   0.115   0.159   0.186   0.211   0.205   0.213
 1997 227    52   178    86     23    111    242     0     0    90    0.39   0.0   0.0   0.00   0.192   0.154   0.183   0.210   0.204   0.213
 1997 228    53   175    82     23    111    242     0     0    90    0.30   0.0   0.0   0.00   0.169   0.145   0.177   0.207   0.202   0.212
 1997 229    54   172    79     23    111    242     0     0    90    0.23   0.0   0.0   0.00   0.150   0.138   0.172   0.205   0.201   0.212
 1997 230    55   216   123     33    112    302     0     0    90    0.41   0.0   0.0  10.47   0.274   0.263   0.261   0.250   0.225   0.218
 1997 231    56   202   109     33    121    302     0     0    90    0.31   0.0   0.0   0.00   0.244   0.227   0.231   0.232   0.216   0.217
 1997 232    57   197   104     33    122    302     0     0    90    0.24   0.0   0.0   0.00   0.226   0.216   0.221   0.226   0.213   0.215
 1997 233    58   208   116     33    123    322     0     0    90    0.41   0.0   0.0   0.00   0.274   0.256   0.237   0.235   0.219   0.217
 1997 234    59   200   108     33    127    322     0     0    90    0.31   0.0   0.0   0.00   0.248   0.227   0.225   0.228   0.217   0.216
 1997 235    60   199   106     33    127    322     0     0    90    0.24   0.0   0.0   0.00   0.242   0.223   0.222   0.226   0.216   0.215
 1997 236    61   195   102     33    127    322     0     0    90    0.18   0.0   0.0   0.00   0.215   0.214   0.217   0.224   0.214   0.215
 1997 237    62   202   110     33    127    335     0     0    90    0.41   0.0   0.0   0.00   0.279   0.239   0.226   0.227   0.214   0.215
 1997 238    63   198   106     33    127    335     0     0    90    0.31   0.0   0.0   0.00   0.250   0.221   0.222   0.226   0.214   0.215
 1997 239    64   202   109     33    127    343     0     0    90    0.42   0.0   0.0   0.00   0.283   0.232   0.225   0.227   0.215   0.214
 1997 240    65   199   107     33    127    343     0     0    90    0.32   0.0   0.0   0.00   0.257   0.223   0.224   0.227   0.215   0.215
 1997 241    66   206   113     33    128    355     0     0    90    0.42   0.0   0.0   0.00   0.278   0.247   0.232   0.232   0.217   0.216
 1997 242    67   198   105     33    130    355     0     0    90    0.32   0.0   0.0   0.00   0.246   0.221   0.221   0.226   0.214   0.215
 1997 243    68   193   100     33    130    355     0     0    90    0.24   0.0   0.0   0.00   0.215   0.208   0.212   0.222   0.211   0.214
 1997 244    69   188    96     33    130    355     0     0    90    0.18   0.0   0.0   0.00   0.188   0.197   0.205   0.218   0.209   0.214
 1997 245    70   184    91     33    130    355     0     0    90    0.14   0.0   0.0   0.00   0.164   0.186   0.198   0.215   0.207   0.213
 1997 246    71   182    89     33    130    356     0     0    90    0.31   0.0   0.0   0.00   0.156   0.180   0.194   0.213   0.205   0.213
 1997 247    72   184    92     33    130    362     0     0    90    0.37   0.0   0.0   0.00   0.242   0.176   0.190   0.211   0.204   0.213
 1997 248    73   200   108     33    130    382     0     0    90    0.40   0.0   0.0   0.00   0.282   0.259   0.226   0.218   0.201   0.212
 1997 249    74   197   104     33    130    382     0     0    90    0.30   0.0   0.0   0.00   0.253   0.229   0.222   0.226   0.205   0.211
 1997 250    75   193   100     33    130    382     0     0    90    0.22   0.0   0.0   0.00   0.238   0.219   0.215   0.222   0.202   0.210
 1997 251    76   213   121     34    131    409     0     0    90    0.43   0.0   0.0   0.39   0.278   0.258   0.256   0.246   0.222   0.216
 1997 252    77   223   130     34    136    427     0     0    88    0.36   0.0   0.0   0.00   0.289   0.266   0.262   0.263   0.240   0.224
 1997 253    78   217   124     34    142    430     0     0    88    0.43   0.0   0.0   0.00   0.285   0.241   0.244   0.252   0.239   0.226
 1997 254    79   203   111     34    152    430     0     0    89    0.32   0.0   0.0   0.00   0.254   0.223   0.227   0.234   0.222   0.219
 1997 255    80   197   105     34    153    430     0     0    90    0.24   0.0   0.0   0.00   0.236   0.210   0.219   0.226   0.215   0.218
 1997 256    81   222   129     37    159    469     0     0    88    0.44   0.0   0.0   3.08   0.280   0.259   0.258   0.264   0.242   0.225
 1997 257    82   205   112     37    172    469     0     0    89    0.33   0.0   0.0   0.00   0.251   0.228   0.232   0.238   0.223   0.218
 1997 258    83   205   113     37    174    477     0     0    89    0.45   0.0   0.0   0.00   0.280   0.232   0.229   0.234   0.221   0.218
 1997 259    84   199   106     37    176    477     0     0    90    0.34   0.0   0.0   0.00   0.248   0.217   0.221   0.226   0.215   0.217
 1997 260    85   209   116     37    177    494     0     0    90    0.45   0.0   0.0   0.00   0.281   0.260   0.237   0.235   0.219   0.218
 1997 261    86   220   127     37    181    510     0     0    89    0.41   0.0   0.0   0.00   0.292   0.268   0.260   0.252   0.232   0.222
 1997 262    87   204   111     37    193    510     0     0    90    0.31   0.0   0.0   0.00   0.255   0.231   0.233   0.234   0.219   0.217
 1997 263    88   199   106     37    194    510     0     0    90    0.23   0.0   0.0   0.00   0.242   0.219   0.223   0.227   0.215   0.216
 1997 264    89   193   100     37    194    510     0     0    90    0.17   0.0   0.0   0.00   0.220   0.204   0.213   0.222   0.211   0.215
 1997 265    90   210   118     37    195    534     0     0    90    0.45   0.0   0.0   0.02   0.281   0.260   0.244   0.238   0.220   0.217
 1997 266    91   203   110     37    201    534     0     0    90    0.36   0.0   0.0   0.00   0.259   0.234   0.231   0.231   0.216   0.216
 1997 267    92   202   110     37    202    539     0     0    90    0.43   0.0   0.0   0.00   0.280   0.228   0.226   0.230   0.216   0.216
 1997 268    93   200   107     37    202    539     0     0    90    0.32   0.0   0.0   0.00   0.258   0.222   0.224   0.228   0.215   0.216
 1997 269    94   196   103     37    202    539     0     0    90    0.24   0.0   0.0   0.00   0.243   0.212   0.218   0.224   0.212   0.215
 1997 270    95   227   135     53    215    607     0     0    85    0.46   0.0   0.0  16.48   0.276   0.257   0.256   0.263   0.256   0.238
 1997 271    96   204   112     53    232    607     0     0    89    0.34   0.0   0.0   0.00   0.242   0.222   0.228   0.236   0.226   0.222
 1997 272    97   201   108     53    235    611     0     0    89    0.47   0.0   0.0   0.00   0.263   0.218   0.221   0.228   0.218   0.219
 1997 273    98   196   104     53    235    611     0     0    90    0.35   0.0   0.0   0.00   0.242   0.208   0.213   0.224   0.216   0.218
 1997 274    99   191    99     53    235    611     0     0    90    0.26   0.0   0.0   0.00   0.224   0.195   0.204   0.219   0.212   0.217
 1997 275   100   206   113     53    235    632     0     0    90    0.47   0.0   0.0   0.00   0.276   0.257   0.231   0.228   0.214   0.217
 1997 276   101   200   108     53    237    632     0     0    90    0.35   0.0   0.0   0.00   0.251   0.229   0.225   0.226   0.214   0.217
 1997 277   102   196   103     53    237    632     0     0    90    0.25   0.0   0.0   0.00   0.235   0.218   0.217   0.222   0.211   0.216

*DSSAT Cropping System Model Ver. 4.5.1.023 -Stub         NOV 08, 2014; 00:45:26
                                                                                
*RUN   4        : 97 DATE2 F-MIX            CRGRO045 GHNY9701    4              
 MODEL          : CRGRO045 - Peanut                                             
 EXPERIMENT     : GHNY9701 PN 1997 VARIETY X PLANTING DATE EXPERIMENT           
 DATA PATH      :                                                               
 TREATMENT  4   : 97 DATE2 F-MIX            CRGRO045                            
  
!                                                                                                 Soil water content (mm3/mm3) by soil depth (cm):
!                                                                                                 0-5    5-15   15-30   30-45   45-60   60-90
@YEAR DOY   DAS  SWTD  SWXD   ROFC   DRNC   PREC  IR#C  IRRC  DTWT    MWTD  TDFD  TDFC   ROFD    SW1D    SW2D    SW3D    SW4D    SW5D    SW6D    
 1997 175     0   203   110      0      0      0     0     0     0    0.19   0.0   0.0   0.00   0.225   0.225   0.225   0.232   0.216   0.226
 1997 176     1   197   104      0      2      0     0     0    45    0.15   0.0   0.0   0.00   0.206   0.217   0.221   0.229   0.214   0.218
 1997 177     2   192   100      0      2      0     0     0    90    0.11   0.0   0.0   0.00   0.181   0.207   0.215   0.225   0.211   0.216
 1997 178     3   191    99      0      2      0     0     0    90    0.09   0.0   0.0   0.00   0.167   0.206   0.214   0.225   0.211   0.216
 1997 179     4   220   127      2      5     37     0     0    89    0.39   0.0   0.0   2.10   0.284   0.267   0.264   0.256   0.232   0.220
 1997 180     5   203   110      2     17     37     0     0    90    0.30   0.0   0.0   0.00   0.236   0.230   0.234   0.235   0.219   0.215
 1997 181     6   207   114      2     18     46     0     0    90    0.40   0.0   0.0   0.00   0.278   0.240   0.235   0.235   0.221   0.217
 1997 182     7   199   106      2     21     46     0     0    90    0.31   0.0   0.0   0.00   0.239   0.223   0.225   0.228   0.215   0.215
 1997 183     8   198   105      2     21     46     0     0    90    0.24   0.0   0.0   0.00   0.220   0.222   0.225   0.228   0.215   0.215
 1997 184     9   197   104      2     21     46     0     0    90    0.18   0.0   0.0   0.00   0.202   0.220   0.225   0.228   0.215   0.215
 1997 185    10   196   103      2     21     46     0     0    90    0.14   0.0   0.0   0.00   0.187   0.219   0.225   0.228   0.215   0.215
 1997 186    11   196   104      2     21     47     0     0    90    0.39   0.0   0.0   0.00   0.197   0.218   0.224   0.228   0.215   0.215
 1997 187    12   195   103      2     21     47     0     0    90    0.30   0.0   0.0   0.00   0.182   0.217   0.224   0.228   0.215   0.215
 1997 188    13   194   102      2     21     47     0     0    90    0.23   0.0   0.0   0.00   0.167   0.215   0.224   0.228   0.215   0.215
 1997 189    14   193   101      2     21     47     0     0    90    0.18   0.0   0.0   0.00   0.154   0.214   0.223   0.227   0.215   0.215
 1997 190    15   193   100      2     21     47     0     0    90    0.14   0.0   0.0   0.00   0.143   0.212   0.223   0.227   0.215   0.215
 1997 191    16   211   118      2     22     69     0     0    90    0.39   0.0   0.0   0.00   0.287   0.264   0.241   0.237   0.221   0.217
 1997 192    17   202   110      2     28     69     0     0    90    0.30   0.0   0.0   0.00   0.252   0.234   0.230   0.230   0.216   0.216
 1997 193    18   199   107      2     28     71     0     0    90    0.40   0.0   0.0   0.00   0.243   0.223   0.226   0.228   0.215   0.215
 1997 194    19   198   106      2     28     71     0     0    90    0.31   0.0   0.0   0.00   0.223   0.221   0.225   0.228   0.215   0.215
 1997 195    20   217   125      2     31     98     0     0    89    0.40   0.0   0.0   0.37   0.276   0.264   0.261   0.250   0.230   0.219
 1997 196    21   236   144     14     53    152     0     0    81    0.36   0.0   0.0  11.31   0.287   0.268   0.264   0.267   0.259   0.254
 1997 197    22   222   129     14     66    153     0     0    85    0.39   0.0   0.0   0.00   0.267   0.243   0.247   0.255   0.248   0.239
 1997 198    23   205   113     14     80    153     0     0    88    0.30   0.0   0.0   0.00   0.241   0.225   0.230   0.235   0.225   0.223
 1997 199    24   199   106     14     83    153     0     0    90    0.23   0.0   0.0   0.00   0.222   0.217   0.226   0.228   0.217   0.217
 1997 200    25   195   102     14     83    153     0     0    90    0.18   0.0   0.0   0.00   0.201   0.209   0.220   0.225   0.215   0.215
 1997 201    26   194   101     14     83    153     0     0    90    0.27   0.0   0.0   0.00   0.192   0.207   0.220   0.225   0.215   0.215
 1997 202    27   193   101     14     83    154     0     0    90    0.36   0.0   0.0   0.00   0.187   0.205   0.219   0.225   0.215   0.215
 1997 203    28   192    99     14     83    154     0     0    90    0.27   0.0   0.0   0.00   0.170   0.202   0.217   0.224   0.215   0.215
 1997 204    29   195   103     14     83    159     0     0    90    0.40   0.0   0.0   0.00   0.243   0.202   0.216   0.224   0.214   0.215
 1997 205    30   195   102     14     83    160     0     0    90    0.35   0.0   0.0   0.00   0.240   0.203   0.214   0.223   0.214   0.215
 1997 206    31   193   100     14     83    160     0     0    90    0.27   0.0   0.0   0.00   0.218   0.199   0.212   0.223   0.214   0.215
 1997 207    32   191    98     14     83    160     0     0    90    0.21   0.0   0.0   0.00   0.198   0.195   0.210   0.222   0.213   0.215
 1997 208    33   189    96     14     83    160     0     0    90    0.16   0.0   0.0   0.00   0.179   0.191   0.207   0.221   0.213   0.215
 1997 209    34   187    94     14     83    160     0     0    90    0.12   0.0   0.0   0.00   0.162   0.186   0.205   0.220   0.212   0.215
 1997 210    35   191    99     14     83    167     0     0    90    0.39   0.0   0.0   0.00   0.249   0.191   0.203   0.219   0.212   0.215
 1997 211    36   204   112     14     83    182     0     0    90    0.32   0.0   0.0   0.00   0.287   0.254   0.230   0.227   0.211   0.214
 1997 212    37   201   109     14     84    182     0     0    90    0.24   0.0   0.0   0.00   0.258   0.232   0.227   0.228   0.215   0.215
 1997 213    38   200   107     14     84    184     0     0    90    0.40   0.0   0.0   0.00   0.253   0.225   0.226   0.228   0.214   0.215
 1997 214    39   197   104     14     84    184     0     0    90    0.31   0.0   0.0   0.00   0.227   0.218   0.222   0.227   0.213   0.215
 1997 215    40   194   101     14     84    184     0     0    90    0.23   0.0   0.0   0.00   0.204   0.212   0.218   0.225   0.212   0.214
 1997 216    41   192    99     14     84    184     0     0    90    0.18   0.0   0.0   0.00   0.184   0.207   0.215   0.224   0.211   0.214
 1997 217    42   226   134     23     91    238     0     0    87    0.39   0.0   0.0   8.93   0.285   0.265   0.262   0.266   0.255   0.228
 1997 218    43   208   116     23    107    238     0     0    89    0.30   0.0   0.0   0.00   0.259   0.236   0.237   0.240   0.229   0.220
 1997 219    44   201   108     23    112    238     0     0    90    0.23   0.0   0.0   0.00   0.245   0.223   0.227   0.231   0.219   0.216
 1997 220    45   196   103     23    112    238     0     0    90    0.18   0.0   0.0   0.00   0.221   0.210   0.218   0.226   0.216   0.215
 1997 221    46   193   100     23    112    238     0     0    90    0.14   0.0   0.0   0.00   0.199   0.203   0.214   0.224   0.215   0.215
 1997 222    47   189    96     23    112    238     0     0    90    0.10   0.0   0.0   0.00   0.175   0.194   0.208   0.222   0.213   0.214
 1997 223    48   185    93     23    112    238     0     0    90    0.08   0.0   0.0   0.00   0.153   0.184   0.202   0.219   0.211   0.214
 1997 224    49   182    90     23    112    238     0     0    90    0.06   0.0   0.0   0.00   0.135   0.177   0.197   0.217   0.210   0.214
 1997 225    50   179    86     23    112    238     0     0    90    0.05   0.0   0.0   0.00   0.123   0.167   0.191   0.214   0.208   0.214
 1997 226    51   176    83     23    112    238     0     0    90    0.04   0.0   0.0   0.00   0.114   0.157   0.185   0.211   0.206   0.213
 1997 227    52   178    86     23    112    242     0     0    90    0.39   0.0   0.0   0.00   0.191   0.152   0.181   0.210   0.205   0.213
 1997 228    53   174    82     23    112    242     0     0    90    0.30   0.0   0.0   0.00   0.168   0.142   0.175   0.207   0.203   0.213
 1997 229    54   171    79     23    112    242     0     0    90    0.23   0.0   0.0   0.00   0.149   0.135   0.170   0.204   0.201   0.212
 1997 230    55   215   123     33    113    302     0     0    90    0.41   0.0   0.0  10.40   0.275   0.263   0.260   0.249   0.224   0.217
 1997 231    56   202   109     33    121    302     0     0    90    0.31   0.0   0.0   0.00   0.245   0.227   0.231   0.232   0.216   0.216
 1997 232    57   197   104     33    122    302     0     0    90    0.24   0.0   0.0   0.00   0.227   0.215   0.221   0.228   0.213   0.215
 1997 233    58   208   116     33    123    322     0     0    90    0.41   0.0   0.0   0.00   0.274   0.256   0.237   0.236   0.219   0.217
 1997 234    59   200   108     33    127    322     0     0    90    0.31   0.0   0.0   0.00   0.249   0.227   0.225   0.228   0.215   0.216
 1997 235    60   198   106     33    127    322     0     0    90    0.24   0.0   0.0   0.00   0.243   0.223   0.222   0.227   0.214   0.216
 1997 236    61   195   102     33    127    322     0     0    90    0.18   0.0   0.0   0.00   0.216   0.214   0.216   0.224   0.212   0.215
 1997 237    62   202   110     33    127    335     0     0    90    0.41   0.0   0.0   0.00   0.280   0.239   0.226   0.227   0.214   0.214
 1997 238    63   198   106     33    127    335     0     0    90    0.31   0.0   0.0   0.00   0.251   0.221   0.221   0.226   0.214   0.215
 1997 239    64   202   109     33    127    343     0     0    90    0.42   0.0   0.0   0.00   0.284   0.232   0.225   0.227   0.215   0.214
 1997 240    65   199   107     33    127    343     0     0    90    0.33   0.0   0.0   0.00   0.258   0.223   0.224   0.227   0.215   0.215
 1997 241    66   206   113     33    128    355     0     0    90    0.41   0.0   0.0   0.00   0.279   0.247   0.232   0.232   0.217   0.216
 1997 242    67   198   105     33    131    355     0     0    90    0.31   0.0   0.0   0.00   0.247   0.221   0.220   0.226   0.214   0.215
 1997 243    68   193   100     33    131    355     0     0    90    0.24   0.0   0.0   0.00   0.216   0.208   0.212   0.222   0.211   0.215
 1997 244    69   188    96     33    131    355     0     0    90    0.18   0.0   0.0   0.00   0.189   0.197   0.205   0.218   0.209   0.214
 1997 245    70   184    91     33    131    355     0     0    90    0.14   0.0   0.0   0.00   0.165   0.186   0.198   0.215   0.207   0.214
 1997 246    71   182    89     33    131    356     0     0    90    0.31   0.0   0.0   0.00   0.160   0.180   0.194   0.213   0.205   0.213
 1997 247    72   185    92     33    131    362     0     0    90    0.37   0.0   0.0   0.00   0.247   0.177   0.189   0.211   0.204   0.213
 1997 248    73   200   108     33    131    382     0     0    90    0.40   0.0   0.0   0.00   0.283   0.259   0.226   0.217   0.201   0.212
 1997 249    74   197   105     33    131    382     0     0    90    0.30   0.0   0.0   0.00   0.255   0.229   0.222   0.226   0.205   0.212
 1997 250    75   193   101     33    131    382     0     0    90    0.22   0.0   0.0   0.00   0.241   0.219   0.215   0.222   0.202   0.211
 1997 251    76   213   121     33    131    409     0     0    90    0.44   0.0   0.0   0.39   0.280   0.258   0.255   0.246   0.222   0.216
 1997 252    77   223   130     33    136    427     0     0    88    0.38   0.0   0.0   0.00   0.290   0.265   0.262   0.263   0.240   0.224
 1997 253    78   217   124     33    142    430     0     0    88    0.42   0.0   0.0   0.00   0.287   0.241   0.244   0.252   0.239   0.226
 1997 254    79   203   111     33    152    430     0     0    89    0.31   0.0   0.0   0.00   0.256   0.223   0.227   0.234   0.222   0.219
 1997 255    80   197   104     33    154    430     0     0    90    0.23   0.0   0.0   0.00   0.239   0.209   0.218   0.226   0.215   0.216
 1997 256    81   222   129     37    159    469     0     0    88    0.45   0.0   0.0   3.06   0.282   0.259   0.257   0.264   0.242   0.225
 1997 257    82   205   112     37    172    469     0     0    89    0.33   0.0   0.0   0.00   0.253   0.228   0.231   0.238   0.222   0.218
 1997 258    83   205   113     37    174    477     0     0    89    0.46   0.0   0.0   0.00   0.282   0.232   0.228   0.233   0.221   0.219
 1997 259    84   199   106     37    176    477     0     0    90    0.34   0.0   0.0   0.00   0.251   0.216   0.220   0.226   0.215   0.218
 1997 260    85   209   116     37    178    494     0     0    90    0.46   0.0   0.0   0.00   0.283   0.260   0.236   0.235   0.219   0.218
 1997 261    86   220   127     37    181    510     0     0    89    0.46   0.0   0.0   0.00   0.293   0.268   0.260   0.252   0.232   0.222
 1997 262    87   204   111     37    193    510     0     0    90    0.35   0.0   0.0   0.00   0.257   0.231   0.232   0.234   0.219   0.217
 1997 263    88   199   106     37    195    510     0     0    90    0.26   0.0   0.0   0.00   0.246   0.219   0.223   0.227   0.215   0.217
 1997 264    89   193   100     37    195    510     0     0    90    0.19   0.0   0.0   0.00   0.226   0.203   0.212   0.222   0.211   0.216
 1997 265    90   210   118     37    196    534     0     0    90    0.46   0.0   0.0   0.02   0.283   0.260   0.243   0.238   0.220   0.217
 1997 266    91   203   111     37    202    534     0     0    90    0.41   0.0   0.0   0.00   0.261   0.234   0.230   0.230   0.216   0.217
 1997 267    92   203   110     37    202    539     0     0    90    0.39   0.0   0.0   0.00   0.284   0.227   0.226   0.229   0.216   0.216
 1997 268    93   200   107     37    203    539     0     0    90    0.33   0.0   0.0   0.00   0.259   0.222   0.224   0.227   0.215   0.216
 1997 269    94   196   104     37    203    539     0     0    90    0.24   0.0   0.0   0.00   0.247   0.211   0.217   0.224   0.212   0.215
 1997 270    95   227   135     53    216    607     0     0    85    0.48   0.0   0.0  16.35   0.279   0.257   0.256   0.263   0.256   0.239
 1997 271    96   205   112     53    233    607     0     0    88    0.35   0.0   0.0   0.00   0.245   0.222   0.227   0.235   0.226   0.223
 1997 272    97   201   108     53    235    611     0     0    89    0.49   0.0   0.0   0.00   0.267   0.218   0.220   0.227   0.218   0.219
 1997 273    98   196   103     53    236    611     0     0    90    0.36   0.0   0.0   0.00   0.246   0.209   0.212   0.223   0.215   0.216
 1997 274    99   191    98     53    236    611     0     0    90    0.26   0.0   0.0   0.00   0.229   0.195   0.203   0.219   0.212   0.215
 1997 275   100   205   113     53    236    632     0     0    90    0.49   0.0   0.0   0.00   0.279   0.257   0.230   0.228   0.214   0.216
 1997 276   101   200   107     53    238    632     0     0    90    0.38   0.0   0.0   0.00   0.254   0.228   0.224   0.226   0.214   0.215
 1997 277   102   195   103     53    238    632     0     0    90    0.28   0.0   0.0   0.00   0.240   0.217   0.216   0.222   0.211   0.215
 1997 278   103   226   133     57    244    674     0     0    88    0.50   0.0   0.0   3.62   0.293   0.268   0.263   0.267   0.246   0.225
 1997 279   104   223   130     57    252    684     0     0    87    0.40   0.0   0.0   0.00   0.282   0.259   0.254   0.260   0.247   0.229
 1997 280   105   204   111     57    266    684     0     0    89    0.29   0.0   0.0   0.00   0.250   0.225   0.228   0.235   0.224   0.220
 1997 281   106   202   109     57    267    686     0     0    89    0.51   0.0   0.0   0.00   0.260   0.223   0.226   0.229   0.219   0.218
 1997 282   107   198   105     57    267    686     0     0    90    0.37   0.0   0.0   0.00   0.246   0.212   0.218   0.225   0.216   0.218
 1997 283   108   193   101     57    267    686     0     0    90    0.27   0.0   0.0   0.00   0.231   0.199   0.210   0.221   0.213   0.217
 1997 284   109   188    96     57    267    686     0     0    90    0.19   0.0   0.0   0.00   0.215   0.186   0.201   0.217   0.210   0.216
 1997 285   110   184    91     57    267    686     0     0    90    0.14   0.0   0.0   0.00   0.191   0.176   0.194   0.213   0.207   0.215
 1997 286   111   179    86     57    267    686     0     0    90    0.10   0.0   0.0   0.00   0.165   0.163   0.186   0.209   0.204   0.215
 1997 287   112   176    83     57    267    687     0     0    90    0.21   0.0   0.0   0.00   0.154   0.155   0.181   0.207   0.203   0.214
 1997 288   113   189    97     57    267    705     0     0    90    0.45   0.0   0.0   0.00   0.272   0.228   0.188   0.202   0.200   0.214
 1997 289   114   183    91     57    267    705     0     0    90    0.32   0.0   0.0   0.00   0.242   0.212   0.181   0.197   0.196   0.213
 1997 290   115   180    88     57    267    705     0     0    90    0.23   0.0   0.0   0.00   0.227   0.204   0.176   0.195   0.194   0.212
 1997 291   116   197   104     57    267    725     0     0    90    0.51   0.0   0.0   0.00   0.288   0.264   0.226   0.199   0.192   0.212
 1997 292   117   194   101     57    267    725     0     0    90    0.41   0.0   0.0   0.00   0.258   0.232   0.223   0.217   0.190   0.211
 1997 293   118   191    99     57    267    725     0     0    90    0.29   0.0   0.0   0.00   0.248   0.221   0.219   0.214   0.188   0.211
 1997 294   119   188    96     57    267    725     0     0    90    0.21   0.0   0.0   0.00   0.233   0.214   0.215   0.212   0.187   0.210
 1997 295   120   183    91     57    267    725     0     0    90    0.15   0.0   0.0   0.00   0.205   0.201   0.206   0.208   0.184   0.210
 1997 296   121   177    85     57    267    725     0     0    90    0.11   0.0   0.0   0.00   0.175   0.186   0.196   0.203   0.181   0.209
 1997 297   122   183    90     57    267    736     0     0    90    0.51   0.0   0.0   0.00   0.271   0.217   0.188   0.199   0.178   0.209
 1997 298   123   178    85     57    267    736     0     0    90    0.36   0.0   0.0   0.00   0.245   0.208   0.179   0.195   0.176   0.208

*DSSAT Cropping System Model Ver. 4.5.1.023 -Stub         NOV 08, 2014; 00:45:26
                                                                                
*RUN   5        : 97 DATE3 CHINESE          CRGRO045 GHNY9701    5              
 MODEL          : CRGRO045 - Peanut                                             
 EXPERIMENT     : GHNY9701 PN 1997 VARIETY X PLANTING DATE EXPERIMENT           
 DATA PATH      :                                                               
 TREATMENT  5   : 97 DATE3 CHINESE          CRGRO045                            
  
!                                                                                                 Soil water content (mm3/mm3) by soil depth (cm):
!                                                                                                 0-5    5-15   15-30   30-45   45-60   60-90
@YEAR DOY   DAS  SWTD  SWXD   ROFC   DRNC   PREC  IR#C  IRRC  DTWT    MWTD  TDFD  TDFC   ROFD    SW1D    SW2D    SW3D    SW4D    SW5D    SW6D    
 1997 203     0   175    83      0      0      0     0     0     0    0.19   0.0   0.0   0.00   0.160   0.160   0.160   0.213   0.202   0.217
 1997 204     1   177    84      0      0      5     0     0    45    0.34   0.0   0.0   0.00   0.237   0.154   0.156   0.210   0.200   0.215
 1997 205     2   177    84      0      0      7     0     0    90    0.35   0.0   0.0   0.00   0.239   0.155   0.156   0.210   0.200   0.215
 1997 206     3   176    83      0      0      7     0     0    90    0.27   0.0   0.0   0.00   0.220   0.154   0.156   0.210   0.200   0.215
 1997 207     4   175    82      0      0      7     0     0    90    0.20   0.0   0.0   0.00   0.203   0.153   0.156   0.210   0.200   0.215
 1997 208     5   174    81      0      0      7     0     0    90    0.16   0.0   0.0   0.00   0.187   0.152   0.156   0.209   0.200   0.215
 1997 209     6   173    80      0      0      7     0     0    90    0.12   0.0   0.0   0.00   0.173   0.151   0.156   0.209   0.199   0.215
 1997 210     7   178    86      0      0     13     0     0    90    0.39   0.0   0.0   0.00   0.256   0.162   0.155   0.209   0.199   0.215
 1997 211     8   192    99      0      0     29     0     0    90    0.32   0.0   0.0   0.00   0.285   0.247   0.183   0.208   0.198   0.214
 1997 212     9   190    97      0      0     29     0     0    90    0.24   0.0   0.0   0.00   0.257   0.230   0.196   0.207   0.198   0.213
 1997 213    10   189    96      0      0     30     0     0    90    0.40   0.0   0.0   0.00   0.251   0.225   0.198   0.205   0.196   0.212
 1997 214    11   187    95      0      0     30     0     0    90    0.30   0.0   0.0   0.00   0.230   0.224   0.197   0.205   0.196   0.212
 1997 215    12   186    94      0      0     30     0     0    90    0.23   0.0   0.0   0.00   0.212   0.222   0.197   0.205   0.196   0.212
 1997 216    13   185    93      0      0     30     0     0    90    0.18   0.0   0.0   0.00   0.195   0.221   0.197   0.205   0.196   0.212
 1997 217    14   223   130      9      4     84     0     0    89    0.39   0.0   0.0   9.27   0.283   0.267   0.264   0.266   0.240   0.222
 1997 218    15   207   115      9     18     84     0     0    90    0.30   0.0   0.0   0.00   0.257   0.237   0.239   0.241   0.224   0.217
 1997 219    16   201   108      9     21     84     0     0    90    0.23   0.0   0.0   0.00   0.241   0.225   0.228   0.231   0.217   0.216
 1997 220    17   196   104      9     21     84     0     0    90    0.18   0.0   0.0   0.00   0.214   0.214   0.222   0.227   0.215   0.214
 1997 221    18   195   102      9     21     84     0     0    90    0.14   0.0   0.0   0.00   0.197   0.213   0.222   0.227   0.214   0.214
 1997 222    19   194   101      9     21     84     0     0    90    0.10   0.0   0.0   0.00   0.180   0.211   0.221   0.227   0.214   0.214
 1997 223    20   193   100      9     21     84     0     0    90    0.08   0.0   0.0   0.00   0.166   0.208   0.220   0.227   0.214   0.214
 1997 224    21   192    99      9     21     84     0     0    90    0.06   0.0   0.0   0.00   0.152   0.207   0.219   0.227   0.214   0.214
 1997 225    22   191    98      9     21     84     0     0    90    0.05   0.0   0.0   0.00   0.140   0.204   0.218   0.226   0.214   0.214
 1997 226    23   190    97      9     21     84     0     0    90    0.04   0.0   0.0   0.00   0.130   0.202   0.217   0.226   0.214   0.214
 1997 227    24   193   100      9     21     89     0     0    90    0.38   0.0   0.0   0.00   0.205   0.200   0.216   0.226   0.214   0.214
 1997 228    25   192    99      9     21     89     0     0    90    0.29   0.0   0.0   0.00   0.188   0.198   0.215   0.225   0.214   0.214
 1997 229    26   190    98      9     21     89     0     0    90    0.23   0.0   0.0   0.00   0.172   0.196   0.214   0.225   0.214   0.214
 1997 230    27   226   134     21     29    149     0     0    87    0.40   0.0   0.0  11.68   0.278   0.264   0.262   0.265   0.258   0.228
 1997 231    28   205   113     21     46    149     0     0    89    0.30   0.0   0.0   0.00   0.239   0.229   0.233   0.238   0.228   0.219
 1997 232    29   198   106     21     48    149     0     0    90    0.23   0.0   0.0   0.00   0.215   0.219   0.224   0.229   0.218   0.217
 1997 233    30   209   117     21     50    168     0     0    90    0.40   0.0   0.0   0.00   0.265   0.258   0.240   0.237   0.222   0.217
 1997 234    31   200   108     21     55    168     0     0    90    0.30   0.0   0.0   0.00   0.240   0.229   0.227   0.229   0.216   0.216
 1997 235    32   199   106     21     55    168     0     0    90    0.23   0.0   0.0   0.00   0.231   0.225   0.225   0.228   0.215   0.215
 1997 236    33   197   104     21     55    168     0     0    90    0.18   0.0   0.0   0.00   0.210   0.221   0.223   0.227   0.215   0.215
 1997 237    34   204   112     21     55    181     0     0    90    0.39   0.0   0.0   0.00   0.272   0.242   0.230   0.231   0.216   0.216
 1997 238    35   199   107     21     56    181     0     0    90    0.30   0.0   0.0   0.00   0.242   0.223   0.225   0.228   0.214   0.215
 1997 239    36   202   110     21     56    189     0     0    90    0.40   0.0   0.0   0.00   0.276   0.232   0.227   0.229   0.215   0.215
 1997 240    37   199   107     21     57    189     0     0    90    0.31   0.0   0.0   0.00   0.252   0.223   0.225   0.227   0.215   0.215
 1997 241    38   205   113     21     57    201     0     0    90    0.40   0.0   0.0   0.00   0.270   0.247   0.233   0.233   0.218   0.216
 1997 242    39   198   105     21     60    201     0     0    90    0.31   0.0   0.0   0.00   0.236   0.222   0.222   0.226   0.215   0.214
 1997 243    40   195   102     21     60    201     0     0    90    0.24   0.0   0.0   0.00   0.211   0.215   0.218   0.224   0.214   0.214
 1997 244    41   192    99     21     60    201     0     0    90    0.18   0.0   0.0   0.00   0.189   0.208   0.214   0.222   0.212   0.214
 1997 245    42   189    97     21     60    201     0     0    90    0.14   0.0   0.0   0.00   0.169   0.202   0.210   0.221   0.211   0.214
 1997 246    43   188    95     21     60    202     0     0    90    0.30   0.0   0.0   0.00   0.163   0.197   0.207   0.220   0.211   0.214
 1997 247    44   191    98     21     60    208     0     0    90    0.35   0.0   0.0   0.00   0.243   0.197   0.205   0.218   0.210   0.214
 1997 248    45   207   114     21     60    228     0     0    90    0.37   0.0   0.0   0.00   0.278   0.262   0.236   0.231   0.215   0.214
 1997 249    46   200   108     21     63    228     0     0    90    0.29   0.0   0.0   0.00   0.249   0.231   0.225   0.228   0.214   0.215
 1997 250    47   196   104     21     63    228     0     0    90    0.22   0.0   0.0   0.00   0.231   0.218   0.220   0.225   0.212   0.214
 1997 251    48   215   122     21     65    255     0     0    89    0.40   0.0   0.0   0.45   0.274   0.259   0.257   0.247   0.226   0.218
 1997 252    49   224   131     21     70    273     0     0    88    0.34   0.0   0.0   0.00   0.287   0.266   0.262   0.264   0.242   0.225
 1997 253    50   217   124     21     77    276     0     0    88    0.40   0.0   0.0   0.00   0.282   0.242   0.244   0.252   0.240   0.227
 1997 254    51   203   111     21     87    276     0     0    89    0.31   0.0   0.0   0.00   0.251   0.223   0.228   0.234   0.222   0.219
 1997 255    52   197   105     21     88    276     0     0    90    0.23   0.0   0.0   0.00   0.230   0.211   0.220   0.226   0.215   0.218
 1997 256    53   222   129     25     94    316     0     0    88    0.41   0.0   0.0   3.28   0.277   0.260   0.258   0.264   0.241   0.225
 1997 257    54   205   112     25    107    316     0     0    90    0.31   0.0   0.0   0.00   0.248   0.229   0.232   0.238   0.223   0.218
 1997 258    55   205   113     25    109    323     0     0    89    0.41   0.0   0.0   0.00   0.278   0.232   0.229   0.234   0.221   0.218
 1997 259    56   198   106     25    111    323     0     0    90    0.31   0.0   0.0   0.00   0.245   0.217   0.221   0.227   0.215   0.217
 1997 260    57   209   116     25    112    340     0     0    90    0.41   0.0   0.0   0.00   0.279   0.260   0.237   0.235   0.219   0.217
 1997 261    58   220   127     25    116    357     0     0    89    0.37   0.0   0.0   0.00   0.291   0.268   0.260   0.252   0.232   0.222
 1997 262    59   204   111     25    128    357     0     0    90    0.28   0.0   0.0   0.00   0.254   0.231   0.233   0.234   0.219   0.217
 1997 263    60   199   106     25    129    357     0     0    90    0.21   0.0   0.0   0.00   0.240   0.219   0.224   0.228   0.215   0.216
 1997 264    61   193   100     25    129    357     0     0    90    0.16   0.0   0.0   0.00   0.216   0.204   0.213   0.222   0.211   0.215
 1997 265    62   210   118     25    130    380     0     0    90    0.41   0.0   0.0   0.05   0.280   0.260   0.244   0.238   0.220   0.217
 1997 266    63   203   110     25    136    380     0     0    90    0.32   0.0   0.0   0.00   0.259   0.234   0.231   0.231   0.216   0.216
 1997 267    64   202   110     25    136    385     0     0    90    0.41   0.0   0.0   0.00   0.279   0.227   0.226   0.230   0.216   0.216
 1997 268    65   200   107     25    137    385     0     0    90    0.31   0.0   0.0   0.00   0.257   0.222   0.224   0.228   0.215   0.216
 1997 269    66   196   103     25    137    385     0     0    90    0.24   0.0   0.0   0.00   0.228   0.213   0.219   0.225   0.213   0.215
 1997 270    67   227   135     42    150    453     0     0    85    0.42   0.0   0.0  16.80   0.276   0.257   0.257   0.263   0.256   0.238
 1997 271    68   204   112     42    167    453     0     0    89    0.32   0.0   0.0   0.00   0.241   0.222   0.228   0.236   0.226   0.222
 1997 272    69   201   108     42    169    457     0     0    89    0.43   0.0   0.0   0.00   0.263   0.218   0.221   0.228   0.218   0.219
 1997 273    70   196   104     42    169    457     0     0    90    0.32   0.0   0.0   0.00   0.242   0.208   0.213   0.224   0.216   0.218
 1997 274    71   191    98     42    169    457     0     0    90    0.24   0.0   0.0   0.00   0.223   0.195   0.204   0.219   0.212   0.217
 1997 275    72   206   113     42    169    478     0     0    90    0.43   0.0   0.0   0.00   0.276   0.257   0.230   0.228   0.214   0.217
[...]
 1997 295    92   183    90     46    200    571     0     0    90    0.14   0.0   0.0   0.00   0.194   0.202   0.208   0.210   0.185   0.209
 1997 296    93   177    85     46    200    571     0     0    90    0.10   0.0   0.0   0.00   0.166   0.188   0.198   0.205   0.182   0.208
 1997 297    94   183    90     46    200    582     0     0    90    0.45   0.0   0.0   0.00   0.269   0.215   0.190   0.201   0.179   0.208
 1997 298    95   178    86     46    200    582     0     0    90    0.33   0.0   0.0   0.00   0.242   0.206   0.182   0.197   0.177   0.206
 1997 299    96   180    87     46    200    590     0     0    90    0.47   0.0   0.0   0.00   0.276   0.221   0.184   0.192   0.174   0.205
 1997 300    97   175    83     46    200    590     0     0    90    0.35   0.0   0.0   0.00   0.244   0.214   0.176   0.187   0.173   0.204
 1997 301    98   173    81     46    200    594     0     0    90    0.47   0.0   0.0   0.00   0.261   0.214   0.169   0.182   0.171   0.203
 1997 302    99   168    76     46    200    594     0     0    90    0.35   0.0   0.0   0.00   0.235   0.200   0.159   0.177   0.169   0.201
 1997 303   100   163    70     46    200    594     0     0    90    0.26   0.0   0.0   0.00   0.204   0.187   0.150   0.173   0.168   0.201
 1997 304   101   159    67     46    200    594     0     0    90    0.19   0.0   0.0   0.00   0.180   0.177   0.144   0.170   0.167   0.200
 1997 305   102   154    61     46    200    594     0     0    90    0.14   0.0   0.0   0.00   0.153   0.163   0.135   0.166   0.167   0.200

*DSSAT Cropping System Model Ver. 4.5.1.023 -Stub         NOV 08, 2014; 00:45:26
                                                                                
*RUN   6        : 97 DATE3 F-MIX            CRGRO045 GHNY9701    6              
 MODEL          : CRGRO045 - Peanut                                             
 EXPERIMENT     : GHNY9701 PN 1997 VARIETY X PLANTING DATE EXPERIMENT           
 DATA PATH      :                                                               
 TREATMENT  6   : 97 DATE3 F-MIX            CRGRO045                            
  
!                                                                                                 Soil water content (mm3/mm3) by soil depth (cm):
!                                                                                                 0-5    5-15   15-30   30-45   45-60   60-90
@YEAR DOY   DAS  SWTD  SWXD   ROFC   DRNC   PREC  IR#C  IRRC  DTWT    MWTD  TDFD  TDFC   ROFD    SW1D    SW2D    SW3D    SW4D    SW5D    SW6D    
 1997 203     0   175    83      0      0      0     0     0     0    0.19   0.0   0.0   0.00   0.160   0.160   0.160   0.213   0.202   0.217
 1997 204     1   177    84      0      0      5     0     0    45    0.34   0.0   0.0   0.00   0.237   0.154   0.156   0.210   0.200   0.215
 1997 205     2   177    84      0      0      7     0     0    90    0.35   0.0   0.0   0.00   0.239   0.155   0.156   0.210   0.200   0.215
 1997 206     3   176    83      0      0      7     0     0    90    0.27   0.0   0.0   0.00   0.220   0.154   0.156   0.210   0.200   0.215
 1997 207     4   175    82      0      0      7     0     0    90    0.20   0.0   0.0   0.00   0.203   0.153   0.156   0.210   0.200   0.215
 1997 208     5   174    81      0      0      7     0     0    90    0.16   0.0   0.0   0.00   0.187   0.152   0.156   0.209   0.200   0.215
 1997 209     6   173    80      0      0      7     0     0    90    0.12   0.0   0.0   0.00   0.173   0.151   0.156   0.209   0.199   0.215
 1997 210     7   178    86      0      0     13     0     0    90    0.39   0.0   0.0   0.00   0.256   0.162   0.155   0.209   0.199   0.215
 1997 211     8   192    99      0      0     29     0     0    90    0.32   0.0   0.0   0.00   0.285   0.247   0.183   0.208   0.198   0.214
 1997 212     9   190    97      0      0     29     0     0    90    0.24   0.0   0.0   0.00   0.257   0.230   0.196   0.207   0.198   0.213
 1997 213    10   189    96      0      0     30     0     0    90    0.40   0.0   0.0   0.00   0.251   0.225   0.198   0.205   0.196   0.212
 1997 214    11   187    95      0      0     30     0     0    90    0.30   0.0   0.0   0.00   0.230   0.224   0.198   0.205   0.196   0.212
 1997 215    12   186    94      0      0     30     0     0    90    0.23   0.0   0.0   0.00   0.212   0.222   0.197   0.205   0.196   0.212
 1997 216    13   185    93      0      0     30     0     0    90    0.18   0.0   0.0   0.00   0.195   0.221   0.197   0.205   0.196   0.212
 1997 217    14   223   130      9      4     84     0     0    89    0.39   0.0   0.0   9.27   0.283   0.267   0.264   0.266   0.240   0.222
 1997 218    15   207   115      9     18     84     0     0    90    0.30   0.0   0.0   0.00   0.257   0.237   0.239   0.241   0.224   0.217
 1997 219    16   201   108      9     21     84     0     0    90    0.23   0.0   0.0   0.00   0.241   0.225   0.228   0.231   0.217   0.216
 1997 220    17   196   104      9     21     84     0     0    90    0.18   0.0   0.0   0.00   0.214   0.214   0.222   0.227   0.215   0.214
 1997 221    18   195   102      9     21     84     0     0    90    0.14   0.0   0.0   0.00   0.197   0.213   0.222   0.227   0.214   0.214
 1997 222    19   194   101      9     21     84     0     0    90    0.10   0.0   0.0   0.00   0.180   0.211   0.221   0.227   0.214   0.214
 1997 223    20   193   100      9     21     84     0     0    90    0.08   0.0   0.0   0.00   0.166   0.208   0.220   0.227   0.214   0.214
 1997 224    21   192    99      9     21     84     0     0    90    0.06   0.0   0.0   0.00   0.152   0.207   0.219   0.227   0.214   0.214
 1997 225    22   191    98      9     21     84     0     0    90    0.05   0.0   0.0   0.00   0.140   0.205   0.218   0.226   0.214   0.214
 1997 226    23   190    97      9     21     84     0     0    90    0.04   0.0   0.0   0.00   0.130   0.202   0.217   0.226   0.214   0.214
 1997 227    24   193   101      9     21     89     0     0    90    0.38   0.0   0.0   0.00   0.205   0.201   0.217   0.226   0.214   0.214
 1997 228    25   192    99      9     21     89     0     0    90    0.29   0.0   0.0   0.00   0.188   0.198   0.215   0.226   0.214   0.214
 1997 229    26   190    98      9     21     89     0     0    90    0.23   0.0   0.0   0.00   0.172   0.196   0.214   0.225   0.214   0.214
 1997 230    27   227   134     21     29    149     0     0    87    0.40   0.0   0.0  11.69   0.278   0.264   0.262   0.265   0.258   0.228
 1997 231    28   205   113     21     46    149     0     0    89    0.30   0.0   0.0   0.00   0.239   0.229   0.233   0.238   0.228   0.219
 1997 232    29   198   106     21     48    149     0     0    90    0.23   0.0   0.0   0.00   0.215   0.219   0.224   0.229   0.218   0.217
 1997 233    30   209   117     21     50    168     0     0    90    0.40   0.0   0.0   0.00   0.265   0.258   0.240   0.237   0.222   0.217
 1997 234    31   200   108     21     55    168     0     0    90    0.30   0.0   0.0   0.00   0.239   0.229   0.227   0.229   0.216   0.216
 1997 235    32   199   106     21     55    168     0     0    90    0.23   0.0   0.0   0.00   0.231   0.225   0.225   0.228   0.215   0.215
 1997 236    33   197   104     21     55    168     0     0    90    0.18   0.0   0.0   0.00   0.210   0.221   0.223   0.227   0.215   0.215
 1997 237    34   204   112     21     55    181     0     0    90    0.39   0.0   0.0   0.00   0.271   0.241   0.230   0.231   0.217   0.217
 1997 238    35   199   107     21     56    181     0     0    90    0.30   0.0   0.0   0.00   0.242   0.223   0.225   0.228   0.214   0.215
 1997 239    36   202   110     21     56    189     0     0    90    0.40   0.0   0.0   0.00   0.276   0.232   0.227   0.229   0.215   0.215
 1997 240    37   199   107     21     57    189     0     0    90    0.31   0.0   0.0   0.00   0.252   0.223   0.225   0.227   0.215   0.215
 1997 241    38   205   113     21     58    201     0     0    90    0.40   0.0   0.0   0.00   0.270   0.247   0.233   0.233   0.218   0.216
 1997 242    39   198   105     21     60    201     0     0    90    0.31   0.0   0.0   0.00   0.236   0.222   0.222   0.226   0.215   0.214
 1997 243    40   195   102     21     60    201     0     0    90    0.24   0.0   0.0   0.00   0.211   0.214   0.218   0.224   0.214   0.214
 1997 244    41   192    99     21     60    201     0     0    90    0.18   0.0   0.0   0.00   0.189   0.207   0.214   0.222   0.213   0.214
 1997 245    42   189    96     21     60    201     0     0    90    0.14   0.0   0.0   0.00   0.169   0.201   0.209   0.221   0.212   0.214
 1997 246    43   187    95     21     60    202     0     0    90    0.30   0.0   0.0   0.00   0.162   0.196   0.207   0.220   0.211   0.214
 1997 247    44   190    98     21     60    208     0     0    90    0.35   0.0   0.0   0.00   0.242   0.195   0.204   0.218   0.210   0.214
 1997 248    45   206   114     21     60    228     0     0    90    0.37   0.0   0.0   0.00   0.278   0.262   0.235   0.231   0.215   0.214
 1997 249    46   200   108     21     63    228     0     0    90    0.29   0.0   0.0   0.00   0.249   0.231   0.225   0.228   0.214   0.215
 1997 250    47   196   103     21     63    228     0     0    90    0.22   0.0   0.0   0.00   0.232   0.218   0.220   0.224   0.212   0.214
 1997 251    48   215   122     21     65    255     0     0    89    0.40   0.0   0.0   0.45   0.275   0.259   0.257   0.247   0.226   0.218
 1997 252    49   224   131     21     70    273     0     0    88    0.34   0.0   0.0   0.00   0.287   0.266   0.262   0.264   0.242   0.225
 1997 253    50   217   124     21     77    276     0     0    88    0.40   0.0   0.0   0.00   0.283   0.241   0.244   0.252   0.240   0.227
 1997 254    51   203   111     21     87    276     0     0    89    0.31   0.0   0.0   0.00   0.251   0.223   0.228   0.234   0.222   0.219
 1997 255    52   197   105     21     88    276     0     0    90    0.23   0.0   0.0   0.00   0.231   0.210   0.219   0.226   0.215   0.218
 1997 256    53   222   129     25     94    316     0     0    88    0.41   0.0   0.0   3.28   0.278   0.259   0.258   0.264   0.241   0.225
 1997 257    54   205   112     25    107    316     0     0    90    0.31   0.0   0.0   0.00   0.249   0.228   0.232   0.238   0.223   0.218
 1997 258    55   205   113     25    109    323     0     0    89    0.41   0.0   0.0   0.00   0.279   0.232   0.229   0.234   0.221   0.218
 1997 259    56   199   106     25    111    323     0     0    90    0.32   0.0   0.0   0.00   0.246   0.217   0.221   0.227   0.215   0.217
 1997 260    57   209   116     25    112    340     0     0    90    0.42   0.0   0.0   0.00   0.280   0.260   0.237   0.235   0.219   0.217
 1997 261    58   220   127     25    116    357     0     0    89    0.37   0.0   0.0   0.00   0.292   0.268   0.260   0.252   0.232   0.222
 1997 262    59   204   111     25    128    357     0     0    90    0.28   0.0   0.0   0.00   0.255   0.231   0.232   0.234   0.219   0.217
 1997 263    60   199   106     25    129    357     0     0    90    0.22   0.0   0.0   0.00   0.242   0.219   0.223   0.227   0.215   0.216
 1997 264    61   193   100     25    129    357     0     0    90    0.16   0.0   0.0   0.00   0.219   0.203   0.213   0.222   0.211   0.215
 1997 265    62   210   118     25    130    380     0     0    90    0.41   0.0   0.0   0.05   0.281   0.260   0.243   0.238   0.220   0.217
 1997 266    63   203   110     25    136    380     0     0    90    0.34   0.0   0.0   0.00   0.259   0.234   0.230   0.231   0.216   0.217
 1997 267    64   202   110     25    137    385     0     0    90    0.39   0.0   0.0   0.00   0.281   0.227   0.226   0.229   0.216   0.216
 1997 268    65   200   107     25    137    385     0     0    90    0.31   0.0   0.0   0.00   0.258   0.222   0.224   0.228   0.215   0.216
 1997 269    66   196   103     25    137    385     0     0    90    0.23   0.0   0.0   0.00   0.244   0.212   0.217   0.224   0.212   0.215
 1997 270    67   227   135     42    150    453     0     0    85    0.42   0.0   0.0  16.99   0.277   0.257   0.256   0.263   0.256   0.238
 1997 271    68   204   112     42    167    453     0     0    89    0.32   0.0   0.0   0.00   0.243   0.222   0.227   0.235   0.226   0.222
 1997 272    69   201   108     42    169    457     0     0    89    0.43   0.0   0.0   0.00   0.265   0.218   0.220   0.228   0.218   0.219
 1997 273    70   196   103     42    170    457     0     0    90    0.33   0.0   0.0   0.00   0.244   0.208   0.212   0.223   0.215   0.216
 1997 274    71   190    98     42    170    457     0     0    90    0.25   0.0   0.0   0.00   0.227   0.195   0.203   0.219   0.212   0.215
 1997 275    72   205   113     42    170    478     0     0    90    0.43   0.0   0.0   0.00   0.278   0.257   0.230   0.228   0.214   0.216
 1997 276    73   200   107     42    172    478     0     0    90    0.32   0.0   0.0   0.00   0.253   0.228   0.224   0.226   0.214   0.215
 1997 277    74   195   103     42    172    478     0     0    90    0.24   0.0   0.0   0.00   0.238   0.217   0.216   0.222   0.211   0.215
 1997 278    75   225   133     46    177    520     0     0    88    0.44   0.0   0.0   4.01   0.292   0.268   0.263   0.267   0.245   0.225
 1997 279    76   223   130     46    185    530     0     0    87    0.37   0.0   0.0   0.00   0.281   0.259   0.254   0.260   0.246   0.229
 1997 280    77   204   111     46    199    530     0     0    89    0.28   0.0   0.0   0.00   0.249   0.225   0.228   0.235   0.223   0.220
 1997 281    78   202   109     46    200    532     0     0    89    0.45   0.0   0.0   0.00   0.260   0.223   0.226   0.229   0.219   0.218
 1997 282    79   198   105     46    200    532     0     0    90    0.34   0.0   0.0   0.00   0.245   0.212   0.218   0.225   0.216   0.217
 1997 283    80   193   101     46    200    532     0     0    90    0.25   0.0   0.0   0.00   0.230   0.199   0.210   0.221   0.213   0.217
 1997 284    81   188    96     46    200    532     0     0    90    0.19   0.0   0.0   0.00   0.214   0.186   0.201   0.217   0.210   0.216
 1997 285    82   184    91     46    200    532     0     0    90    0.14   0.0   0.0   0.00   0.190   0.176   0.194   0.213   0.207   0.215
 1997 286    83   179    86     46    200    532     0     0    90    0.10   0.0   0.0   0.00   0.164   0.163   0.186   0.209   0.204   0.215
 1997 287    84   176    83     46    200    533     0     0    90    0.20   0.0   0.0   0.00   0.153   0.155   0.180   0.207   0.203   0.214
 1997 288    85   189    97     46    200    551     0     0    90    0.41   0.0   0.0   0.00   0.272   0.227   0.188   0.202   0.200   0.214
 1997 289    86   183    91     46    200    551     0     0    90    0.30   0.0   0.0   0.00   0.242   0.211   0.181   0.197   0.196   0.213
 1997 290    87   180    88     46    200    551     0     0    90    0.23   0.0   0.0   0.00   0.227   0.204   0.176   0.195   0.194   0.212
 1997 291    88   197   104     46    200    571     0     0    90    0.46   0.0   0.0   0.00   0.288   0.264   0.226   0.199   0.192   0.212
 1997 292    89   194   101     46    200    571     0     0    90    0.37   0.0   0.0   0.00   0.258   0.232   0.223   0.217   0.190   0.211
 1997 293    90   191    98     46    200    571     0     0    90    0.28   0.0   0.0   0.00   0.248   0.221   0.219   0.214   0.188   0.211
 1997 294    91   188    96     46    200    571     0     0    90    0.21   0.0   0.0   0.00   0.233   0.213   0.214   0.212   0.187   0.210
 1997 295    92   183    90     46    200    571     0     0    90    0.15   0.0   0.0   0.00   0.207   0.201   0.206   0.208   0.184   0.210
 1997 296    93   177    85     46    200    571     0     0    90    0.11   0.0   0.0   0.00   0.176   0.186   0.196   0.203   0.180   0.209
 1997 297    94   182    90     46    200    582     0     0    90    0.47   0.0   0.0   0.00   0.272   0.215   0.189   0.199   0.178   0.209
 1997 298    95   178    85     46    200    582     0     0    90    0.34   0.0   0.0   0.00   0.245   0.207   0.180   0.194   0.176   0.208
 1997 299    96   180    87     46    200    590     0     0    90    0.49   0.0   0.0   0.00   0.279   0.221   0.182   0.189   0.173   0.207
 1997 300    97   175    82     46    200    590     0     0    90    0.36   0.0   0.0   0.00   0.248   0.214   0.174   0.184   0.172   0.206
 1997 301    98   173    81     46    200    594     0     0    90    0.50   0.0   0.0   0.00   0.265   0.214   0.166   0.179   0.170   0.205
 1997 302    99   168    75     46    200    594     0     0    90    0.36   0.0   0.0   0.00   0.240   0.201   0.156   0.174   0.168   0.204
 1997 303   100   163    70     46    200    594     0     0    90    0.26   0.0   0.0   0.00   0.212   0.187   0.146   0.169   0.167   0.203
 1997 304   101   159    66     46    200    594     0     0    90    0.19   0.0   0.0   0.00   0.192   0.177   0.140   0.166   0.167   0.203
 1997 305   102   153    61     46    200    594     0     0    90    0.14   0.0   0.0   0.00   0.163   0.162   0.130   0.161   0.166   0.202
 1997 306   103   150    57     46    200    594     0     0    90    0.10   0.0   0.0   0.00   0.142   0.151   0.123   0.158   0.165   0.201
 1997 307   104   144    51     46    200    594     0     0    90    0.07   0.0   0.0   0.00   0.124   0.132   0.110   0.154   0.164   0.201
 1997 308   105   138    45     46    200    594     0     0    90    0.05   0.0   0.0   0.00   0.113   0.108   0.097   0.151   0.163   0.199
 1997 309   106   133    40     46    200    594     0     0    90    0.04   0.0   0.0   0.00   0.105   0.082   0.092   0.148   0.161   0.198
 1997 310   107   131    38     46    200    594     0     0    90    0.03   0.0   0.0   0.00   0.097   0.080   0.088   0.145   0.160   0.196
 1997 311   108   129    36     46    200    594     0     0    90    0.02   0.0   0.0   0.00   0.091   0.079   0.086   0.143   0.159   0.194
 1997 312   109   128    35     46    200    595     0     0    90    0.18   0.0   0.0   0.00   0.092   0.077   0.084   0.141   0.158   0.193
 1997 313   110   126    34     46    200    595     0     0    90    0.13   0.0   0.0   0.00   0.086   0.076   0.083   0.139   0.157   0.191
 1997 314   111   125    32     46    200    595     0     0    90    0.09   0.0   0.0   0.00   0.081   0.075   0.082   0.138   0.156   0.190
 1997 315   112   124    31     46    200    595     0     0    90    0.07   0.0   0.0   0.00   0.076   0.074   0.081   0.137   0.155   0.189
 1997 316   113   123    30     46    200    595     0     0    90    0.05   0.0   0.0   0.00   0.072   0.073   0.080   0.136   0.154   0.188
 1997 317   114   122    29     46    200    595     0     0    90    0.04   0.0   0.0   0.00   0.068   0.072   0.079   0.135   0.153   0.187
 1997 318   115   121    29     46    200    595     0     0    90    0.04   0.0   0.0   0.00   0.064   0.071   0.078   0.134   0.153   0.187
 1997 319   116   120    28     46    200    595     0     0    90    0.03   0.0   0.0   0.00   0.061   0.070   0.077   0.133   0.152   0.186
 1997 320   117   120    27     46    200    595     0     0    90    0.03   0.0   0.0   0.00   0.058   0.070   0.077   0.133   0.151   0.185
 1997 321   118   119    26     46    200    595     0     0    90    0.02   0.0   0.0   0.00   0.055   0.069   0.076   0.132   0.151   0.184
 1997 322   119   118    26     46    200    595     0     0    90    0.02   0.0   0.0   0.00   0.053   0.068   0.075   0.132   0.150   0.184
 1997 323   120   118    25     46    200    595     0     0    90    0.02   0.0   0.0   0.00   0.051   0.068   0.075   0.131   0.150   0.183
 1997 324   121   117    25     46    200    595     0     0    90    0.02   0.0   0.0   0.00   0.049   0.067   0.074   0.130   0.149   0.183
