*Soil Inorganic Nitrogen daily output file

*DSSAT Cropping System Model Ver. 4.5.1.023 -Stub         NOV 08, 2014; 00:45:26
                                                                                
*RUN   1        : 97 DATE1 CHINESE          CRGRO045 GHNY9701    1              
 MODEL          : CRGRO045 - Peanut                                             
 EXPERIMENT     : GHNY9701 PN 1997 VARIETY X PLANTING DATE EXPERIMENT           
 DATA PATH      :                                                               
 TREATMENT  1   : 97 DATE1 CHINESE          CRGRO045                            
  
!                                                            NO3 (ppm) by soil depth (cm):                   NH4 (ppm) by soil depth (cm):
!                                                            0-5    5-15   15-30   30-45   45-60   60-90     0-5    5-15   15-30   30-45   45-60   60-90
@YEAR DOY   DAS  NAPC  NI#M    NLCC   NIAD   NITD   NHTD    NI1D    NI2D    NI3D    NI4D    NI5D    NI6D    NH1D    NH2D    NH3D    NH4D    NH5D    NH6D    NMNC    NITC    NDNC    NIMC    AMLC   NNMNC    NUCM
 1997 147     0     0     0     0.0    0.3    0.1    0.1    0.01    0.01    0.01    0.01    0.01    0.01    0.01    0.01    0.01    0.01    0.01    0.01    0.00    0.00    0.00    0.00    0.00    0.00    0.00
 1997 148     1     0     0     0.0    0.5    0.2    0.3    0.02    0.01    0.01    0.01    0.01    0.01    0.01    0.02    0.02    0.03    0.03    0.02    0.18    0.02    0.00    0.00    0.00    0.18    0.00
 1997 149     2     0     0     0.0    0.6    0.2    0.4    0.04    0.02    0.01    0.01    0.01    0.01    0.01    0.03    0.03    0.04    0.04    0.03    0.36    0.06    0.00    0.00    0.00    0.36    0.00
 1997 150     3     0     0     0.0    0.8    0.2    0.6    0.06    0.03    0.01    0.02    0.02    0.01    0.01    0.03    0.04    0.05    0.05    0.04    0.54    0.10    0.00    0.00    0.00    0.54    0.00
 1997 151     4     0     0     0.0    1.0    0.3    0.7    0.07    0.04    0.02    0.02    0.02    0.01    0.01    0.04    0.05    0.07    0.07    0.05    0.72    0.16    0.00    0.00    0.00    0.72    0.00
 1997 152     5     0     0     0.0    1.2    0.4    0.8    0.09    0.05    0.02    0.03    0.03    0.01    0.01    0.04    0.05    0.08    0.08    0.06    0.91    0.23    0.00    0.00    0.00    0.91    0.00
 1997 153     6     0     0     0.0    1.4    0.4    0.9    0.10    0.06    0.03    0.03    0.03    0.01    0.01    0.04    0.06    0.09    0.09    0.07    1.10    0.31    0.00    0.00    0.00    1.10    0.00
 1997 154     7     0     0     0.0    1.6    0.5    1.0    0.11    0.07    0.03    0.04    0.04    0.02    0.01    0.04    0.06    0.10    0.10    0.08    1.29    0.39    0.00    0.00    0.00    1.29    0.00
 1997 155     8     0     0     0.0    1.8    0.6    1.1    0.12    0.09    0.04    0.05    0.05    0.02    0.01    0.04    0.07    0.11    0.11    0.08    1.48    0.49    0.00    0.00    0.00    1.48    0.00
 1997 156     9     0     0     0.0    2.0    0.7    1.2    0.14    0.10    0.05    0.06    0.06    0.02    0.02    0.05    0.07    0.12    0.12    0.09    1.69    0.59    0.00    0.00    0.00    1.69    0.00
 1997 157    10     0     0     0.0    2.2    0.8    1.3    0.17    0.11    0.05    0.07    0.07    0.02    0.01    0.05    0.08    0.13    0.13    0.10    1.88    0.70    0.00    0.00    0.00    1.88    0.00
 1997 158    11     0     0     0.0    2.3    0.9    1.4    0.19    0.12    0.06    0.08    0.08    0.03    0.02    0.05    0.08    0.13    0.14    0.11    2.08    0.81    0.00    0.00    0.00    2.08    0.00
 1997 159    12     0     0     0.0    2.5    1.1    1.5    0.21    0.13    0.07    0.09    0.09    0.03    0.02    0.05    0.09    0.14    0.14    0.12    2.27    0.92    0.00    0.00    0.00    2.27    0.00
 1997 160    13     0     0     0.0    2.7    1.2    1.6    0.24    0.14    0.07    0.11    0.10    0.03    0.02    0.05    0.09    0.15    0.15    0.13    2.46    1.04    0.00    0.00    0.00    2.46    0.00
 1997 161    14     0     0     0.0    2.9    1.3    1.6    0.26    0.16    0.08    0.12    0.11    0.03    0.01    0.05    0.09    0.15    0.16    0.13    2.65    1.16    0.00    0.00    0.00    2.65    0.00
 1997 162    15     0     0     0.0    3.1    1.4    1.7    0.28    0.17    0.09    0.13    0.13    0.04    0.01    0.05    0.10    0.16    0.16    0.14    2.84    1.29    0.00    0.00    0.00    2.84    0.00
 1997 163    16     0     0     0.0    3.3    1.6    1.8    0.30    0.18    0.10    0.15    0.14    0.04    0.02    0.05    0.10    0.16    0.17    0.15    3.04    1.42    0.00    0.00    0.00    3.04    0.00
 1997 164    17     0     0     0.0    3.5    1.7    1.8    0.11    0.13    0.21    0.16    0.15    0.04    0.02    0.05    0.10    0.17    0.17    0.15    3.24    1.57    0.00    0.00    0.00    3.24    0.00
 1997 165    18     0     0     0.0    3.8    1.8    1.9    0.12    0.14    0.22    0.17    0.17    0.05    0.04    0.07    0.11    0.17    0.18    0.16    3.48    1.69    0.00    0.00    0.00    3.48    0.00
 1997 166    19     0     0     0.0    4.0    2.0    2.0    0.17    0.15    0.23    0.18    0.18    0.05    0.03    0.08    0.12    0.18    0.18    0.17    3.72    1.84    0.00    0.00    0.00    3.72    0.00
 1997 167    20     0     0     0.0    4.2    2.1    2.1    0.15    0.18    0.25    0.21    0.19    0.05    0.02    0.09    0.13    0.18    0.18    0.17    3.95    2.00    0.00    0.00    0.00    3.95    0.00
 1997 168    21     0     0     0.0    4.5    2.3    2.2    0.18    0.18    0.23    0.23    0.20    0.07    0.04    0.10    0.14    0.18    0.19    0.18    4.19    2.14    0.00    0.00    0.00    4.19    0.00
 1997 169    22     0     0     0.0    4.7    2.5    2.2    0.27    0.20    0.23    0.24    0.22    0.07    0.02    0.10    0.15    0.19    0.19    0.19    4.42    2.32    0.00    0.00    0.00    4.42    0.00
 1997 170    23     0     0     0.0    4.9    2.6    2.3    0.19    0.23    0.26    0.27    0.23    0.08    0.02    0.10    0.16    0.19    0.19    0.19    4.67    2.50    0.00    0.00    0.00    4.67    0.00
 1997 171    24     0     0     0.0    5.1    2.7    2.4    0.23    0.23    0.25    0.27    0.24    0.10    0.04    0.11    0.17    0.19    0.20    0.20    4.91    2.65    0.00    0.00    0.00    4.91    0.00
 1997 172    25     0     0     0.0    5.4    2.9    2.4    0.33    0.25    0.25    0.28    0.25    0.11    0.02    0.11    0.18    0.20    0.20    0.20    5.16    2.85    0.00    0.00    0.00    5.16    0.00
 1997 173    26     0     0     0.0    5.6    3.2    2.5    0.33    0.30    0.28    0.30    0.26    0.11    0.02    0.11    0.19    0.20    0.20    0.21    5.41    3.06    0.00    0.00    0.00    5.41    0.00
 1997 174    27     0     0     0.0    5.9    3.3    2.6    0.31    0.33    0.30    0.32    0.28    0.12    0.04    0.11    0.19    0.20    0.20    0.21    5.67    3.25    0.00    0.00    0.00    5.67    0.00
 1997 175    28     0     0     0.1    6.1    3.5    2.6    0.34    0.33    0.30    0.33    0.30    0.13    0.05    0.11    0.20    0.21    0.20    0.22    5.91    3.43    0.00    0.00    0.00    5.91    0.00
 1997 176    29     0     0     0.1    6.4    3.7    2.7    0.42    0.35    0.32    0.34    0.31    0.14    0.04    0.11    0.21    0.21    0.21    0.22    6.15    3.63    0.00    0.00    0.00    6.15    0.00
 1997 177    30     0     0     0.1    6.6    3.9    2.7    0.53    0.38    0.33    0.35    0.32    0.14    0.02    0.11    0.21    0.21    0.21    0.23    6.39    3.85    0.00    0.00    0.00    6.39    0.00
 1997 178    31     0     0     0.1    6.8    4.1    2.7    0.55    0.41    0.35    0.37    0.34    0.15    0.02    0.10    0.22    0.21    0.21    0.23    6.63    4.05    0.00    0.00    0.00    6.63    0.01
 1997 179    32     0     0     0.1    7.1    4.3    2.7    0.18    0.35    0.43    0.45    0.38    0.16    0.02    0.10    0.22    0.21    0.21    0.24    6.87    4.26    0.00    0.00    0.00    6.87    0.01
 1997 180    33     0     0     0.2    7.2    4.3    2.8    0.22    0.33    0.40    0.43    0.37    0.19    0.04    0.11    0.23    0.22    0.21    0.24    7.11    4.40    0.00    0.00    0.00    7.11    0.01
 1997 181    34     0     0     0.2    7.4    4.6    2.9    0.28    0.35    0.40    0.44    0.40    0.21    0.02    0.12    0.24    0.22    0.21    0.25    7.36    4.62    0.00    0.00    0.00    7.36    0.01
 1997 182    35     0     0     0.3    7.6    4.6    2.9    0.33    0.35    0.39    0.44    0.40    0.23    0.04    0.12    0.25    0.23    0.21    0.25    7.61    4.81    0.00    0.00    0.00    7.61    0.01
 1997 183    36     0     0     0.3    7.8    4.8    3.0    0.43    0.38    0.40    0.44    0.41    0.24    0.03    0.12    0.25    0.23    0.21    0.26    7.86    5.03    0.00    0.00    0.00    7.86    0.01
 1997 184    37     0     0     0.3    8.1    5.1    3.0    0.50    0.41    0.41    0.46    0.42    0.24    0.02    0.11    0.25    0.23    0.22    0.26    8.11    5.25    0.01    0.00    0.00    8.11    0.01
 1997 185    38     0     0     0.3    8.3    5.3    3.0    0.56    0.44    0.43    0.47    0.44    0.25    0.02    0.11    0.25    0.23    0.22    0.27    8.35    5.47    0.01    0.00    0.00    8.35    0.01
 1997 186    39     0     0     0.3    8.5    5.5    3.0    0.61    0.46    0.45    0.48    0.45    0.25    0.02    0.10    0.25    0.23    0.22    0.27    8.58    5.68    0.01    0.00    0.00    8.58    0.03
 1997 187    40     0     0     0.3    8.7    5.7    3.0    0.62    0.49    0.47    0.50    0.46    0.26    0.02    0.10    0.25    0.23    0.22    0.27    8.81    5.90    0.01    0.00    0.00    8.81    0.05
 1997 188    41     0     0     0.3    9.0    5.9    3.1    0.64    0.52    0.49    0.52    0.48    0.26    0.02    0.10    0.25    0.23    0.22    0.28    9.04    6.11    0.01    0.00    0.00    9.04    0.06
 1997 189    42     0     0     0.3    9.1    6.0    3.1    0.66    0.52    0.51    0.53    0.49    0.27    0.02    0.10    0.25    0.23    0.22    0.28    9.27    6.32    0.01    0.00    0.00    9.27    0.13
 1997 190    43     0     0     0.3    9.2    6.1    3.1    0.68    0.52    0.52    0.53    0.51    0.27    0.02    0.10    0.25    0.23    0.22    0.29    9.50    6.54    0.01    0.00    0.00    9.50    0.24
 1997 191    44     0     0     0.3    9.4    6.3    3.1    0.28    0.62    0.58    0.54    0.53    0.28    0.02    0.10    0.25    0.23    0.22    0.29    9.74    6.77    0.01    0.00    0.00    9.74    0.35
 1997 192    45     0     0     0.3    9.5    6.3    3.2    0.31    0.57    0.57    0.58    0.54    0.29    0.04    0.11    0.25    0.23    0.23    0.29    9.98    6.96    0.01    0.00    0.00    9.98    0.50
 1997 193    46     0     0     0.3    9.5    6.3    3.2    0.36    0.54    0.57    0.58    0.54    0.29    0.04    0.11    0.25    0.23    0.23    0.30   10.22    7.19    0.01    0.00    0.00   10.22    0.68
 1997 194    47     0     0     0.3    9.6    6.4    3.2    0.45    0.51    0.56    0.58    0.55    0.30    0.04    0.11    0.25    0.23    0.23    0.30   10.47    7.42    0.01    0.00    0.00   10.47    0.87
 1997 195    48     0     0     0.3    9.6    6.4    3.2    0.28    0.41    0.60    0.64    0.57    0.30    0.02    0.11    0.25    0.23    0.23    0.30   10.71    7.66    0.01    0.00    0.00   10.71    1.07
 1997 196    49     0     0     0.4    9.6    6.3    3.3    0.13    0.24    0.41    0.57    0.68    0.44    0.04    0.12    0.26    0.23    0.23    0.31   10.95    7.82    0.01    0.00    0.00   10.95    1.18
 1997 197    50     0     0     0.6    9.7    6.3    3.4    0.15    0.24    0.38    0.54    0.65    0.47    0.05    0.13    0.27    0.24    0.24    0.31   11.19    7.95    0.01    0.00    0.00   11.19    1.19
 1997 198    51     0     0     1.1    9.4    5.9    3.5    0.18    0.24    0.36    0.49    0.57    0.47    0.05    0.14    0.28    0.25    0.25    0.31   11.43    8.10    0.01    0.00    0.00   11.43    1.21
 1997 199    52     0     0     1.4    9.3    5.8    3.5    0.24    0.27    0.36    0.47    0.53    0.46    0.04    0.13    0.29    0.26    0.25    0.32   11.67    8.31    0.01    0.00    0.00   11.67    1.23
 1997 200    53     0     0     1.5    9.4    5.9    3.5    0.31    0.31    0.38    0.47    0.51    0.46    0.02    0.12    0.29    0.26    0.25    0.32   11.91    8.53    0.01    0.00    0.00   11.91    1.25
 1997 201    54     0     0     1.5    9.6    6.1    3.5    0.37    0.34    0.40    0.48    0.51    0.47    0.03    0.12    0.29    0.26    0.25    0.32   12.14    8.76    0.01    0.00    0.00   12.14    1.25
 1997 202    55     0     0     1.5    9.8    6.3    3.5    0.42    0.37    0.42    0.50    0.51    0.47    0.03    0.11    0.29    0.26    0.25    0.33   12.37    8.99    0.01    0.00    0.00   12.37    1.28
 1997 203    56     0     0     1.5   10.0    6.5    3.5    0.47    0.40    0.44    0.51    0.51    0.48    0.03    0.11    0.28    0.26    0.25    0.33   12.61    9.23    0.01    0.00    0.00   12.61    1.32
 1997 204    57     0     0     1.5   10.2    6.7    3.5    0.52    0.45    0.46    0.51    0.51    0.48    0.03    0.11    0.28    0.26    0.25    0.33   12.85    9.48    0.01    0.00    0.00   12.85    1.40
 1997 205    58     0     0     1.5   10.3    6.8    3.5    0.51    0.49    0.48    0.53    0.51    0.49    0.04    0.11    0.28    0.26    0.25    0.33   13.09    9.72    0.01    0.00    0.00   13.09    1.48
 1997 206    59     0     0     1.5   10.5    7.0    3.5    0.57    0.52    0.50    0.52    0.51    0.50    0.04    0.10    0.28    0.26    0.25    0.34   13.34    9.97    0.01    0.00    0.00   13.34    1.57
 1997 207    60     0     0     1.5   10.6    7.1    3.5    0.60    0.50    0.52    0.52    0.52    0.50    0.02    0.10    0.27    0.25    0.25    0.34   13.59   10.24    0.01    0.00    0.00   13.59    1.77
 1997 208    61     0     0     1.5   10.6    7.1    3.5    0.58    0.53    0.52    0.53    0.52    0.51    0.02    0.10    0.27    0.25    0.25    0.34   13.84   10.50    0.01    0.00    0.00   13.84    1.95
 1997 209    62     0     0     1.5   10.7    7.2    3.5    0.59    0.53    0.52    0.53    0.53    0.52    0.02    0.09    0.27    0.25    0.24    0.34   14.09   10.77    0.01    0.00    0.00   14.09    2.16
 1997 210    63     0     0     1.5   10.7    7.3    3.4    0.58    0.55    0.52    0.53    0.54    0.52    0.02    0.08    0.26    0.25    0.24    0.35   14.33   11.03    0.01    0.00    0.00   14.33    2.35
 1997 211    64     0     0     1.5   10.7    7.3    3.4    0.27    0.60    0.56    0.54    0.54    0.53    0.03    0.08    0.25    0.24    0.24    0.35   14.57   11.28    0.01    0.00    0.00   14.57    2.61
 1997 212    65     0     0     1.5   10.7    7.2    3.4    0.29    0.51    0.58    0.54    0.55    0.53    0.05    0.09    0.25    0.24    0.24    0.35   14.83   11.52    0.01    0.00    0.00   14.83    2.89
 1997 213    66     0     0     1.5   10.6    7.2    3.5    0.32    0.44    0.57    0.54    0.55    0.54    0.04    0.10    0.25    0.24    0.24    0.35   15.08   11.76    0.01    0.00    0.00   15.08    3.18
 1997 214    67     0     0     1.5   10.7    7.2    3.5    0.36    0.47    0.56    0.54    0.56    0.54    0.04    0.10    0.25    0.24    0.24    0.36   15.32   11.99    0.01    0.00    0.00   15.32    3.35
 1997 215    68     0     0     1.5   10.8    7.3    3.5    0.45    0.50    0.55    0.54    0.56    0.54    0.02    0.10    0.25    0.24    0.24    0.36   15.55   12.23    0.01    0.00    0.00   15.55    3.49
 1997 216    69     0     0     1.5   10.9    7.4    3.5    0.49    0.53    0.54    0.55    0.57    0.54    0.03    0.10    0.25    0.23    0.24    0.36   15.78   12.46    0.01    0.00    0.00   15.78    3.63
 1997 217    70     0     0     1.5   10.9    7.4    3.5    0.14    0.30    0.59    0.72    0.58    0.55    0.02    0.10    0.24    0.23    0.24    0.36   16.01   12.70    0.01    0.00    0.00   16.01    3.86
 1997 218    71     0     0     1.6   10.9    7.4    3.5    0.15    0.29    0.51    0.65    0.64    0.58    0.04    0.12    0.26    0.23    0.24    0.36   16.26   12.87    0.01    0.00    0.00   16.26    4.04
 1997 219    72     0     0     1.7   10.7    7.2    3.6    0.19    0.30    0.46    0.61    0.62    0.59    0.04    0.12    0.26    0.23    0.24    0.37   16.51   13.09    0.01    0.00    0.00   16.51    4.29
 1997 220    73     0     0     1.8   10.8    7.2    3.6    0.24    0.32    0.47    0.59    0.61    0.60    0.04    0.12    0.27    0.23    0.24    0.37   16.77   13.33    0.01    0.00    0.00   16.77    4.46
 1997 221    74     0     0     1.8   10.9    7.3    3.6    0.31    0.36    0.48    0.57    0.61    0.60    0.02    0.12    0.27    0.23    0.24    0.37   17.02   13.57    0.01    0.00    0.00   17.02    4.62
 1997 222    75     0     0     1.8   11.0    7.4    3.6    0.37    0.40    0.51    0.56    0.60    0.60    0.03    0.11    0.27    0.23    0.24    0.37   17.27   13.82    0.01    0.00    0.00   17.27    4.77
 1997 223    76     0     0     1.8   11.1    7.5    3.6    0.40    0.43    0.53    0.55    0.60    0.60    0.02    0.11    0.27    0.23    0.24    0.37   17.52   14.07    0.01    0.00    0.00   17.52    4.90
 1997 224    77     0     0     1.8   11.1    7.5    3.6    0.44    0.46    0.50    0.54    0.60    0.61    0.02    0.11    0.27    0.23    0.24    0.38   17.77   14.33    0.01    0.00    0.00   17.77    5.15
 1997 225    78     0     0     1.8   11.2    7.7    3.6    0.47    0.49    0.53    0.53    0.60    0.61    0.02    0.10    0.27    0.23    0.24    0.38   18.02   14.58    0.01    0.00    0.00   18.02    5.28
 1997 226    79     0     0     1.8   11.3    7.7    3.6    0.50    0.52    0.51    0.53    0.60    0.61    0.01    0.10    0.27    0.23    0.24    0.38   18.27   14.83    0.01    0.00    0.00   18.27    5.49
 1997 227    80     0     0     1.8   11.3    7.7    3.6    0.53    0.51    0.50    0.53    0.60    0.62    0.01    0.09    0.27    0.23    0.24    0.38   18.51   15.08    0.01    0.00    0.00   18.51    5.74
 1997 228    81     0     0     1.8   11.3    7.8    3.6    0.51    0.51    0.53    0.53    0.60    0.62    0.03    0.09    0.26    0.23    0.24    0.38   18.75   15.31    0.01    0.00    0.00   18.75    5.92
 1997 229    82     0     0     1.8   11.4    7.8    3.6    0.55    0.53    0.52    0.53    0.61    0.63    0.02    0.08    0.26    0.23    0.24    0.38   18.99   15.56    0.01    0.00    0.00   18.99    6.09
 1997 230    83     0     0     1.8   11.4    7.9    3.5    0.12    0.29    0.65    0.67    0.62    0.63    0.02    0.08    0.26    0.23    0.24    0.39   19.21   15.81    0.01    0.00    0.00   19.21    6.29
 1997 231    84     0     0     1.8   11.4    7.8    3.6    0.14    0.28    0.56    0.61    0.66    0.66    0.04    0.10    0.27    0.23    0.24    0.39   19.48   15.99    0.01    0.00    0.00   19.48    6.50
 1997 232    85     0     0     1.9   11.3    7.7    3.7    0.19    0.30    0.51    0.60    0.65    0.67    0.04    0.11    0.28    0.23    0.24    0.39   19.74   16.23    0.01    0.00    0.00   19.74    6.78
 1997 233    86     0     0     1.9   11.4    7.8    3.7    0.16    0.30    0.53    0.61    0.66    0.67    0.02    0.11    0.28    0.23    0.24    0.39   20.01   16.50    0.01    0.00    0.00   20.01    6.94
 1997 234    87     0     0     2.1   11.2    7.5    3.7    0.19    0.30    0.47    0.57    0.63    0.68    0.04    0.12    0.28    0.23    0.24    0.39   20.28   16.71    0.01    0.00    0.00   20.28    7.21
 1997 235    88     0     0     2.2   11.3    7.5    3.7    0.25    0.32    0.47    0.55    0.62    0.68    0.04    0.12    0.29    0.24    0.23    0.39   20.56   16.98    0.01    0.00    0.00   20.56    7.37
 1997 236    89     0     0     2.2   11.4    7.7    3.7    0.31    0.35    0.50    0.54    0.61    0.69    0.02    0.12    0.29    0.23    0.23    0.39   20.83   17.26    0.01    0.00    0.00   20.83    7.54
 1997 237    90     0     0     2.2   11.5    7.8    3.7    0.23    0.40    0.54    0.54    0.61    0.69    0.03    0.11    0.28    0.23    0.23    0.39   21.10   17.55    0.01    0.00    0.00   21.10    7.69
 1997 238    91     0     0     2.2   11.4    7.7    3.7    0.27    0.41    0.48    0.53    0.61    0.70    0.04    0.12    0.28    0.23    0.23    0.39   21.38   17.81    0.01    0.00    0.00   21.38    7.99
 1997 239    92     0     0     2.2   11.5    7.8    3.7    0.26    0.44    0.52    0.53    0.61    0.70    0.04    0.12    0.28    0.23    0.23    0.40   21.65   18.09    0.01    0.00    0.00   21.65    8.15
 1997 240    93     0     0     2.3   11.5    7.8    3.7    0.30    0.44    0.48    0.52    0.61    0.71    0.05    0.12    0.28    0.23    0.23    0.40   21.92   18.36    0.01    0.00    0.00   21.92    8.44
 1997 241    94     0     0     2.3   11.6    7.9    3.7    0.23    0.46    0.53    0.53    0.61    0.71    0.04    0.11    0.27    0.23    0.23    0.40   22.19   18.64    0.01    0.00    0.00   22.19    8.60
 1997 242    95     0     0     2.4   11.4    7.7    3.7    0.28    0.44    0.48    0.51    0.59    0.71    0.05    0.12    0.27    0.23    0.23    0.40   22.45   18.88    0.01    0.00    0.00   22.45    8.88
 1997 243    96     0     0     2.4   11.6    7.9    3.7    0.36    0.46    0.51    0.51    0.59    0.72    0.04    0.12    0.27    0.23    0.23    0.40   22.72   19.16    0.02    0.00    0.00   22.72    9.03
 1997 244    97     0     0     2.4   11.8    8.1    3.7    0.45    0.50    0.53    0.52    0.59    0.72    0.02    0.11    0.27    0.23    0.23    0.40   22.98   19.45    0.02    0.00    0.00   22.98    9.10
 1997 245    98     0     0     2.4   11.8    8.1    3.7    0.49    0.54    0.51    0.52    0.59    0.72    0.02    0.11    0.27    0.23    0.23    0.40   23.25   19.72    0.02    0.00    0.00   23.25    9.35
 1997 246    99     0     0     2.4   11.8    8.2    3.7    0.53    0.50    0.53    0.52    0.59    0.73    0.02    0.10    0.26    0.23    0.23    0.40   23.51   19.99    0.02    0.00    0.00   23.51    9.57
 1997 247   100     0     0     2.4   11.8    8.2    3.6    0.51    0.54    0.51    0.51    0.59    0.73    0.02    0.10    0.26    0.23    0.23    0.40   23.76   20.25    0.02    0.00    0.00   23.76    9.81
 1997 248   101     0     0     2.4   11.7    8.1    3.6    0.21    0.48    0.57    0.52    0.59    0.73    0.03    0.10    0.26    0.23    0.23    0.40   24.02   20.50    0.02    0.00    0.00   24.02   10.17
 1997 249   102     0     0     2.4   11.7    8.0    3.7    0.24    0.45    0.51    0.56    0.60    0.74    0.04    0.11    0.26    0.23    0.23    0.41   24.27   20.73    0.02    0.00    0.00   24.27   10.43

*DSSAT Cropping System Model Ver. 4.5.1.023 -Stub         NOV 08, 2014; 00:45:26
                                                                                
*RUN   2        : 97 DATE1 F-MIX            CRGRO045 GHNY9701    2              
 MODEL          : CRGRO045 - Peanut                                             
 EXPERIMENT     : GHNY9701 PN 1997 VARIETY X PLANTING DATE EXPERIMENT           
 DATA PATH      :                                                               
 TREATMENT  2   : 97 DATE1 F-MIX            CRGRO045                            
  
!                                                            NO3 (ppm) by soil depth (cm):                   NH4 (ppm) by soil depth (cm):
!                                                            0-5    5-15   15-30   30-45   45-60   60-90     0-5    5-15   15-30   30-45   45-60   60-90
@YEAR DOY   DAS  NAPC  NI#M    NLCC   NIAD   NITD   NHTD    NI1D    NI2D    NI3D    NI4D    NI5D    NI6D    NH1D    NH2D    NH3D    NH4D    NH5D    NH6D    NMNC    NITC    NDNC    NIMC    AMLC   NNMNC    NUCM
 1997 147     0     0     0     0.0    0.3    0.1    0.1    0.01    0.01    0.01    0.01    0.01    0.01    0.01    0.01    0.01    0.01    0.01    0.01    0.00    0.00    0.00    0.00    0.00    0.00    0.00
 1997 148     1     0     0     0.0    0.5    0.2    0.3    0.02    0.01    0.01    0.01    0.01    0.01    0.01    0.02    0.02    0.03    0.03    0.02    0.18    0.02    0.00    0.00    0.00    0.18    0.00
 1997 149     2     0     0     0.0    0.6    0.2    0.4    0.04    0.02    0.01    0.01    0.01    0.01    0.01    0.03    0.03    0.04    0.04    0.03    0.36    0.06    0.00    0.00    0.00    0.36    0.00
 1997 150     3     0     0     0.0    0.8    0.2    0.6    0.06    0.03    0.01    0.02    0.02    0.01    0.01    0.03    0.04    0.05    0.05    0.04    0.54    0.10    0.00    0.00    0.00    0.54    0.00
 1997 151     4     0     0     0.0    1.0    0.3    0.7    0.07    0.04    0.02    0.02    0.02    0.01    0.01    0.04    0.05    0.07    0.07    0.05    0.72    0.16    0.00    0.00    0.00    0.72    0.00
 1997 152     5     0     0     0.0    1.2    0.4    0.8    0.09    0.05    0.02    0.03    0.03    0.01    0.01    0.04    0.05    0.08    0.08    0.06    0.91    0.23    0.00    0.00    0.00    0.91    0.00
 1997 153     6     0     0     0.0    1.4    0.4    0.9    0.10    0.06    0.03    0.03    0.03    0.01    0.01    0.04    0.06    0.09    0.09    0.07    1.10    0.31    0.00    0.00    0.00    1.10    0.00
 1997 154     7     0     0     0.0    1.6    0.5    1.0    0.11    0.07    0.03    0.04    0.04    0.02    0.01    0.04    0.06    0.10    0.10    0.08    1.29    0.39    0.00    0.00    0.00    1.29    0.00
 1997 155     8     0     0     0.0    1.8    0.6    1.1    0.12    0.09    0.04    0.05    0.05    0.02    0.01    0.04    0.07    0.11    0.11    0.08    1.48    0.49    0.00    0.00    0.00    1.48    0.00
 1997 156     9     0     0     0.0    2.0    0.7    1.2    0.14    0.10    0.05    0.06    0.06    0.02    0.02    0.05    0.07    0.12    0.12    0.09    1.69    0.59    0.00    0.00    0.00    1.69    0.00
 1997 157    10     0     0     0.0    2.2    0.8    1.3    0.17    0.11    0.05    0.07    0.07    0.02    0.01    0.05    0.08    0.13    0.13    0.10    1.88    0.70    0.00    0.00    0.00    1.88    0.00
 1997 158    11     0     0     0.0    2.3    0.9    1.4    0.19    0.12    0.06    0.08    0.08    0.03    0.02    0.05    0.08    0.13    0.14    0.11    2.08    0.81    0.00    0.00    0.00    2.08    0.00
 1997 159    12     0     0     0.0    2.5    1.1    1.5    0.21    0.13    0.07    0.09    0.09    0.03    0.02    0.05    0.09    0.14    0.14    0.12    2.27    0.92    0.00    0.00    0.00    2.27    0.00
 1997 160    13     0     0     0.0    2.7    1.2    1.6    0.24    0.14    0.07    0.11    0.10    0.03    0.02    0.05    0.09    0.15    0.15    0.13    2.46    1.04    0.00    0.00    0.00    2.46    0.00
 1997 161    14     0     0     0.0    2.9    1.3    1.6    0.26    0.16    0.08    0.12    0.11    0.03    0.01    0.05    0.09    0.15    0.16    0.13    2.65    1.16    0.00    0.00    0.00    2.65    0.00
 1997 162    15     0     0     0.0    3.1    1.4    1.7    0.28    0.17    0.09    0.13    0.13    0.04    0.01    0.05    0.10    0.16    0.16    0.14    2.84    1.29    0.00    0.00    0.00    2.84    0.00
 1997 163    16     0     0     0.0    3.3    1.6    1.8    0.30    0.18    0.10    0.15    0.14    0.04    0.02    0.05    0.10    0.16    0.17    0.15    3.04    1.42    0.00    0.00    0.00    3.04    0.00
 1997 164    17     0     0     0.0    3.5    1.7    1.8    0.11    0.13    0.21    0.16    0.15    0.04    0.02    0.05    0.10    0.17    0.17    0.15    3.24    1.57    0.00    0.00    0.00    3.24    0.00
 1997 165    18     0     0     0.0    3.8    1.8    1.9    0.12    0.14    0.22    0.17    0.17    0.05    0.04    0.07    0.11    0.17    0.18    0.16    3.48    1.69    0.00    0.00    0.00    3.48    0.00
 1997 166    19     0     0     0.0    4.0    2.0    2.0    0.17    0.15    0.23    0.18    0.18    0.05    0.03    0.08    0.12    0.18    0.18    0.17    3.72    1.84    0.00    0.00    0.00    3.72    0.00
 1997 167    20     0     0     0.0    4.2    2.1    2.1    0.15    0.18    0.25    0.21    0.19    0.05    0.02    0.09    0.13    0.18    0.18    0.17    3.95    2.00    0.00    0.00    0.00    3.95    0.00
 1997 168    21     0     0     0.0    4.5    2.3    2.2    0.18    0.18    0.23    0.23    0.20    0.07    0.04    0.10    0.14    0.18    0.19    0.18    4.19    2.14    0.00    0.00    0.00    4.19    0.00
 1997 169    22     0     0     0.0    4.7    2.5    2.2    0.27    0.20    0.23    0.24    0.22    0.07    0.02    0.10    0.15    0.19    0.19    0.19    4.42    2.32    0.00    0.00    0.00    4.42    0.00
 1997 170    23     0     0     0.0    4.9    2.6    2.3    0.19    0.23    0.26    0.27    0.23    0.08    0.02    0.10    0.16    0.19    0.19    0.19    4.67    2.50    0.00    0.00    0.00    4.67    0.00
 1997 171    24     0     0     0.0    5.2    2.7    2.4    0.23    0.23    0.25    0.27    0.24    0.10    0.04    0.11    0.17    0.19    0.20    0.20    4.91    2.65    0.00    0.00    0.00    4.91    0.00
 1997 172    25     0     0     0.0    5.4    2.9    2.5    0.33    0.25    0.25    0.28    0.25    0.11    0.02    0.11    0.18    0.20    0.20    0.20    5.16    2.85    0.00    0.00    0.00    5.16    0.00
 1997 173    26     0     0     0.0    5.6    3.2    2.5    0.33    0.30    0.28    0.30    0.26    0.11    0.02    0.11    0.19    0.20    0.20    0.21    5.41    3.06    0.00    0.00    0.00    5.41    0.00
 1997 174    27     0     0     0.0    5.9    3.3    2.6    0.31    0.33    0.30    0.32    0.28    0.12    0.04    0.11    0.20    0.20    0.20    0.21    5.67    3.26    0.00    0.00    0.00    5.67    0.00
 1997 175    28     0     0     0.1    6.1    3.5    2.6    0.34    0.34    0.30    0.33    0.30    0.13    0.05    0.11    0.20    0.21    0.20    0.22    5.92    3.44    0.00    0.00    0.00    5.92    0.00
 1997 176    29     0     0     0.1    6.4    3.7    2.7    0.42    0.35    0.32    0.34    0.31    0.14    0.04    0.11    0.21    0.21    0.21    0.22    6.16    3.63    0.00    0.00    0.00    6.16    0.00
 1997 177    30     0     0     0.1    6.6    3.9    2.7    0.54    0.38    0.33    0.35    0.32    0.14    0.02    0.11    0.21    0.21    0.21    0.23    6.39    3.85    0.00    0.00    0.00    6.39    0.00
 1997 178    31     0     0     0.1    6.8    4.1    2.7    0.55    0.41    0.35    0.37    0.34    0.15    0.02    0.10    0.22    0.21    0.21    0.23    6.63    4.06    0.00    0.00    0.00    6.63    0.01
 1997 179    32     0     0     0.1    7.1    4.3    2.7    0.18    0.35    0.44    0.45    0.37    0.16    0.02    0.10    0.22    0.21    0.21    0.24    6.87    4.27    0.00    0.00    0.00    6.87    0.02
 1997 180    33     0     0     0.2    7.2    4.3    2.8    0.22    0.33    0.40    0.42    0.37    0.19    0.04    0.11    0.23    0.22    0.21    0.24    7.11    4.41    0.00    0.00    0.00    7.11    0.02
 1997 181    34     0     0     0.2    7.4    4.6    2.9    0.28    0.35    0.40    0.44    0.40    0.21    0.02    0.12    0.24    0.22    0.21    0.25    7.37    4.62    0.00    0.00    0.00    7.37    0.02
 1997 182    35     0     0     0.3    7.6    4.6    2.9    0.33    0.35    0.39    0.44    0.40    0.23    0.04    0.12    0.25    0.23    0.21    0.25    7.62    4.81    0.00    0.00    0.00    7.62    0.02
 1997 183    36     0     0     0.3    7.8    4.9    3.0    0.43    0.38    0.40    0.44    0.41    0.24    0.03    0.12    0.25    0.23    0.21    0.26    7.87    5.03    0.00    0.00    0.00    7.87    0.02
 1997 184    37     0     0     0.3    8.1    5.1    3.0    0.50    0.41    0.41    0.46    0.42    0.24    0.02    0.11    0.25    0.23    0.22    0.26    8.11    5.26    0.01    0.00    0.00    8.11    0.02
 1997 185    38     0     0     0.3    8.3    5.3    3.0    0.56    0.44    0.43    0.47    0.44    0.25    0.02    0.11    0.25    0.23    0.22    0.27    8.35    5.47    0.01    0.00    0.00    8.35    0.02
 1997 186    39     0     0     0.3    8.5    5.5    3.0    0.61    0.47    0.45    0.48    0.45    0.25    0.02    0.10    0.25    0.23    0.22    0.27    8.59    5.69    0.01    0.00    0.00    8.59    0.03
 1997 187    40     0     0     0.3    8.7    5.7    3.1    0.62    0.49    0.47    0.50    0.46    0.26    0.02    0.10    0.25    0.23    0.22    0.27    8.82    5.90    0.01    0.00    0.00    8.82    0.05
 1997 188    41     0     0     0.3    9.0    5.9    3.1    0.64    0.52    0.49    0.52    0.48    0.26    0.02    0.10    0.25    0.23    0.22    0.28    9.05    6.12    0.01    0.00    0.00    9.05    0.06
 1997 189    42     0     0     0.3    9.1    6.0    3.1    0.66    0.52    0.51    0.53    0.49    0.27    0.02    0.10    0.25    0.23    0.22    0.28    9.28    6.33    0.01    0.00    0.00    9.28    0.13
 1997 190    43     0     0     0.3    9.2    6.1    3.1    0.68    0.52    0.52    0.53    0.51    0.27    0.02    0.10    0.25    0.23    0.22    0.29    9.51    6.55    0.01    0.00    0.00    9.51    0.23
 1997 191    44     0     0     0.3    9.4    6.3    3.1    0.28    0.63    0.59    0.54    0.53    0.28    0.02    0.10    0.25    0.23    0.22    0.29    9.75    6.77    0.01    0.00    0.00    9.75    0.34
 1997 192    45     0     0     0.3    9.5    6.3    3.2    0.31    0.57    0.58    0.58    0.53    0.29    0.04    0.11    0.25    0.23    0.23    0.29    9.99    6.97    0.01    0.00    0.00    9.99    0.49
 1997 193    46     0     0     0.3    9.5    6.4    3.2    0.36    0.54    0.57    0.58    0.54    0.29    0.04    0.11    0.25    0.23    0.23    0.30   10.23    7.19    0.01    0.00    0.00   10.23    0.67
 1997 194    47     0     0     0.3    9.6    6.4    3.2    0.45    0.51    0.56    0.58    0.54    0.30    0.04    0.11    0.25    0.23    0.23    0.30   10.47    7.42    0.01    0.00    0.00   10.47    0.87
 1997 195    48     0     0     0.3    9.6    6.4    3.2    0.27    0.41    0.60    0.64    0.57    0.30    0.02    0.11    0.25    0.23    0.23    0.30   10.71    7.66    0.01    0.00    0.00   10.71    1.07
 1997 196    49     0     0     0.4    9.6    6.3    3.3    0.12    0.24    0.41    0.57    0.68    0.44    0.04    0.12    0.26    0.23    0.23    0.31   10.96    7.83    0.01    0.00    0.00   10.96    1.17
 1997 197    50     0     0     0.6    9.7    6.3    3.4    0.14    0.24    0.39    0.55    0.65    0.47    0.05    0.13    0.27    0.24    0.24    0.31   11.20    7.96    0.01    0.00    0.00   11.20    1.19
 1997 198    51     0     0     1.1    9.4    5.9    3.5    0.17    0.24    0.36    0.49    0.57    0.47    0.05    0.13    0.28    0.25    0.24    0.31   11.43    8.11    0.01    0.00    0.00   11.43    1.21
 1997 199    52     0     0     1.4    9.4    5.9    3.5    0.23    0.27    0.36    0.48    0.53    0.46    0.04    0.13    0.29    0.26    0.25    0.32   11.67    8.31    0.01    0.00    0.00   11.67    1.22
 1997 200    53     0     0     1.5    9.4    5.9    3.5    0.30    0.31    0.38    0.47    0.51    0.46    0.02    0.12    0.29    0.26    0.25    0.32   11.91    8.54    0.01    0.00    0.00   11.91    1.25
 1997 201    54     0     0     1.5    9.6    6.1    3.5    0.36    0.34    0.40    0.48    0.51    0.47    0.03    0.12    0.29    0.26    0.25    0.32   12.15    8.77    0.01    0.00    0.00   12.15    1.28
 1997 202    55     0     0     1.5    9.8    6.3    3.5    0.41    0.37    0.42    0.50    0.52    0.47    0.03    0.11    0.29    0.26    0.25    0.33   12.38    9.00    0.01    0.00    0.00   12.38    1.28
 1997 203    56     0     0     1.5   10.0    6.5    3.5    0.46    0.40    0.44    0.52    0.52    0.48    0.03    0.11    0.28    0.26    0.25    0.33   12.62    9.24    0.01    0.00    0.00   12.62    1.31
 1997 204    57     0     0     1.5   10.2    6.7    3.5    0.50    0.45    0.46    0.51    0.52    0.49    0.03    0.11    0.28    0.26    0.25    0.33   12.86    9.48    0.01    0.00    0.00   12.86    1.40
 1997 205    58     0     0     1.5   10.3    6.8    3.5    0.54    0.49    0.49    0.51    0.52    0.49    0.04    0.11    0.28    0.26    0.25    0.33   13.10    9.72    0.01    0.00    0.00   13.10    1.49
 1997 206    59     0     0     1.5   10.5    7.0    3.5    0.53    0.53    0.51    0.53    0.52    0.50    0.04    0.10    0.28    0.26    0.25    0.34   13.35    9.98    0.01    0.00    0.00   13.35    1.58
 1997 207    60     0     0     1.5   10.5    7.0    3.5    0.54    0.50    0.53    0.52    0.52    0.50    0.02    0.10    0.27    0.25    0.25    0.34   13.60   10.24    0.01    0.00    0.00   13.60    1.79
 1997 208    61     0     0     1.5   10.6    7.1    3.5    0.52    0.54    0.52    0.53    0.52    0.51    0.02    0.10    0.27    0.25    0.25    0.34   13.85   10.51    0.01    0.00    0.00   13.85    1.99
 1997 209    62     0     0     1.5   10.6    7.1    3.5    0.53    0.53    0.52    0.53    0.53    0.52    0.02    0.09    0.27    0.25    0.24    0.34   14.10   10.78    0.01    0.00    0.00   14.10    2.23
 1997 210    63     0     0     1.5   10.6    7.2    3.4    0.52    0.54    0.52    0.53    0.54    0.52    0.02    0.08    0.26    0.25    0.24    0.35   14.34   11.04    0.01    0.00    0.00   14.34    2.44
 1997 211    64     0     0     1.5   10.6    7.2    3.4    0.24    0.59    0.56    0.53    0.54    0.52    0.03    0.08    0.25    0.24    0.24    0.35   14.58   11.29    0.01    0.00    0.00   14.58    2.71
 1997 212    65     0     0     1.5   10.6    7.1    3.4    0.25    0.48    0.57    0.53    0.55    0.53    0.05    0.09    0.25    0.24    0.24    0.35   14.84   11.53    0.01    0.00    0.00   14.84    3.02
 1997 213    66     0     0     1.5   10.6    7.2    3.5    0.28    0.51    0.56    0.53    0.55    0.53    0.05    0.10    0.25    0.24    0.24    0.35   15.09   11.77    0.01    0.00    0.00   15.09    3.20
 1997 214    67     0     0     1.5   10.7    7.2    3.5    0.32    0.53    0.55    0.53    0.55    0.53    0.04    0.10    0.25    0.24    0.24    0.36   15.33   12.00    0.01    0.00    0.00   15.33    3.38
 1997 215    68     0     0     1.5   10.6    7.2    3.5    0.40    0.46    0.54    0.53    0.55    0.54    0.02    0.10    0.25    0.24    0.24    0.36   15.56   12.24    0.01    0.00    0.00   15.56    3.69
 1997 216    69     0     0     1.5   10.7    7.2    3.5    0.44    0.49    0.53    0.53    0.56    0.54    0.03    0.10    0.24    0.23    0.24    0.36   15.79   12.47    0.01    0.00    0.00   15.79    3.84
 1997 217    70     0     0     1.5   10.8    7.3    3.4    0.13    0.30    0.59    0.71    0.56    0.54    0.03    0.10    0.24    0.23    0.24    0.36   16.02   12.71    0.01    0.00    0.00   16.02    3.98
 1997 218    71     0     0     1.6   10.8    7.3    3.5    0.14    0.29    0.51    0.63    0.63    0.57    0.04    0.12    0.25    0.23    0.24    0.36   16.27   12.88    0.01    0.00    0.00   16.27    4.19
 1997 219    72     0     0     1.7   10.6    7.0    3.6    0.17    0.30    0.45    0.59    0.61    0.58    0.05    0.13    0.26    0.23    0.24    0.37   16.53   13.10    0.01    0.00    0.00   16.53    4.50
 1997 220    73     0     0     1.7   10.6    7.0    3.6    0.22    0.32    0.46    0.56    0.60    0.58    0.04    0.12    0.27    0.23    0.24    0.37   16.79   13.34    0.01    0.00    0.00   16.79    4.70
 1997 221    74     0     0     1.7   10.7    7.1    3.6    0.29    0.36    0.48    0.54    0.58    0.58    0.03    0.12    0.27    0.23    0.24    0.37   17.05   13.60    0.01    0.00    0.00   17.05    4.89
 1997 222    75     0     0     1.7   10.8    7.2    3.6    0.32    0.39    0.50    0.52    0.57    0.59    0.03    0.12    0.27    0.23    0.24    0.37   17.30   13.85    0.01    0.00    0.00   17.30    5.07
 1997 223    76     0     0     1.7   10.8    7.2    3.6    0.36    0.43    0.53    0.50    0.57    0.59    0.02    0.11    0.27    0.23    0.24    0.37   17.56   14.10    0.01    0.00    0.00   17.56    5.24
 1997 224    77     0     0     1.7   10.9    7.3    3.6    0.40    0.46    0.49    0.52    0.56    0.59    0.02    0.11    0.27    0.23    0.24    0.38   17.82   14.36    0.01    0.00    0.00   17.82    5.48
 1997 225    78     0     0     1.7   10.9    7.4    3.6    0.43    0.49    0.51    0.51    0.56    0.59    0.02    0.11    0.27    0.23    0.24    0.38   18.07   14.61    0.01    0.00    0.00   18.07    5.64
 1997 226    79     0     0     1.7   10.9    7.3    3.6    0.46    0.52    0.48    0.50    0.55    0.59    0.01    0.10    0.27    0.23    0.24    0.38   18.32   14.86    0.01    0.00    0.00   18.32    5.92
 1997 227    80     0     0     1.7   11.0    7.4    3.6    0.48    0.51    0.51    0.52    0.55    0.60    0.01    0.10    0.27    0.23    0.24    0.38   18.56   15.11    0.01    0.00    0.00   18.56    6.06
 1997 228    81     0     0     1.7   11.1    7.5    3.6    0.50    0.53    0.53    0.51    0.55    0.60    0.03    0.09    0.27    0.23    0.24    0.38   18.81   15.35    0.01    0.00    0.00   18.81    6.20
 1997 229    82     0     0     1.7   11.1    7.5    3.6    0.55    0.53    0.51    0.51    0.55    0.60    0.02    0.09    0.26    0.23    0.24    0.39   19.05   15.60    0.01    0.00    0.00   19.05    6.48
 1997 230    83     0     0     1.7   11.1    7.5    3.6    0.12    0.28    0.63    0.66    0.56    0.60    0.02    0.08    0.26    0.23    0.24    0.39   19.28   15.85    0.01    0.00    0.00   19.28    6.69
 1997 231    84     0     0     1.8   11.0    7.4    3.6    0.12    0.26    0.54    0.60    0.60    0.63    0.04    0.10    0.27    0.23    0.24    0.39   19.55   16.04    0.01    0.00    0.00   19.55    6.97
 1997 232    85     0     0     1.9   10.9    7.2    3.7    0.17    0.28    0.47    0.57    0.59    0.63    0.04    0.11    0.28    0.23    0.24    0.39   19.83   16.28    0.01    0.00    0.00   19.83    7.35
 1997 233    86     0     0     1.9   10.9    7.2    3.7    0.14    0.28    0.50    0.57    0.59    0.63    0.02    0.11    0.28    0.23    0.24    0.39   20.11   16.56    0.01    0.00    0.00   20.11    7.58
 1997 234    87     0     0     2.1   10.8    7.0    3.7    0.16    0.28    0.48    0.52    0.56    0.63    0.04    0.13    0.29    0.24    0.24    0.39   20.38   16.78    0.01    0.00    0.00   20.38    7.81
 1997 235    88     0     0     2.1   10.8    7.0    3.8    0.21    0.30    0.48    0.50    0.54    0.64    0.04    0.13    0.29    0.24    0.24    0.39   20.67   17.05    0.01    0.00    0.00   20.67    8.04
 1997 236    89     0     0     2.1   10.9    7.2    3.8    0.26    0.34    0.51    0.52    0.53    0.64    0.04    0.12    0.29    0.23    0.24    0.39   20.95   17.34    0.01    0.00    0.00   20.95    8.16
 1997 237    90     0     0     2.1   11.0    7.3    3.7    0.21    0.38    0.55    0.51    0.52    0.64    0.02    0.12    0.29    0.23    0.24    0.40   21.24   17.64    0.01    0.00    0.00   21.24    8.37
 1997 238    91     0     0     2.2   10.9    7.1    3.8    0.23    0.39    0.46    0.53    0.52    0.64    0.05    0.13    0.29    0.23    0.24    0.40   21.53   17.90    0.01    0.00    0.00   21.53    8.71
 1997 239    92     0     0     2.2   11.0    7.2    3.8    0.22    0.42    0.50    0.51    0.51    0.64    0.04    0.12    0.29    0.23    0.24    0.40   21.82   18.20    0.01    0.00    0.00   21.82    8.93
 1997 240    93     0     0     2.2   11.0    7.3    3.8    0.25    0.42    0.52    0.50    0.51    0.65    0.05    0.13    0.29    0.23    0.24    0.40   22.10   18.47    0.01    0.00    0.00   22.10    9.14
 1997 241    94     0     0     2.2   11.0    7.2    3.8    0.19    0.44    0.48    0.53    0.51    0.65    0.05    0.12    0.28    0.23    0.24    0.40   22.39   18.76    0.01    0.00    0.00   22.39    9.48
 1997 242    95     0     0     2.3   11.0    7.2    3.8    0.23    0.42    0.49    0.50    0.52    0.65    0.05    0.13    0.29    0.23    0.24    0.40   22.67   19.01    0.01    0.00    0.00   22.67    9.63
 1997 243    96     0     0     2.3   11.2    7.4    3.8    0.29    0.45    0.52    0.52    0.51    0.65    0.04    0.13    0.28    0.23    0.24    0.40   22.95   19.30    0.01    0.00    0.00   22.95    9.74
 1997 244    97     0     0     2.3   11.1    7.3    3.8    0.37    0.49    0.46    0.50    0.53    0.65    0.02    0.12    0.28    0.23    0.24    0.40   23.23   19.61    0.01    0.00    0.00   23.23   10.07
 1997 245    98     0     0     2.3   11.3    7.5    3.7    0.41    0.53    0.49    0.52    0.52    0.65    0.03    0.12    0.28    0.23    0.24    0.40   23.51   19.89    0.01    0.00    0.00   23.51   10.17
 1997 246    99     0     0     2.3   11.2    7.5    3.7    0.45    0.45    0.52    0.50    0.52    0.65    0.02    0.11    0.28    0.23    0.24    0.41   23.78   20.18    0.01    0.00    0.00   23.78   10.52
 1997 247   100     0     0     2.3   11.2    7.5    3.7    0.45    0.50    0.48    0.52    0.51    0.65    0.02    0.11    0.28    0.23    0.24    0.41   24.05   20.45    0.01    0.00    0.00   24.05   10.76
 1997 248   101     0     0     2.3   11.3    7.6    3.7    0.22    0.50    0.58    0.52    0.51    0.66    0.04    0.11    0.28    0.23    0.24    0.41   24.32   20.71    0.01    0.00    0.00   24.32   10.93
 1997 249   102     0     0     2.3   11.2    7.4    3.8    0.24    0.47    0.49    0.54    0.54    0.66    0.05    0.12    0.28    0.23    0.24    0.41   24.59   20.94    0.01    0.00    0.00   24.59   11.30
 1997 250   103     0     0     2.3   11.3    7.5    3.8    0.29    0.47    0.52    0.52    0.54    0.66    0.04    0.13    0.27    0.23    0.24    0.41   24.86   21.21    0.01    0.00    0.00   24.86   11.50
 1997 251   104     0     0     2.3   11.2    7.4    3.8    0.18    0.37    0.50    0.55    0.57    0.66    0.02    0.13    0.27    0.23    0.24    0.41   25.12   21.49    0.01    0.00    0.00   25.12   11.90
 1997 252   105     0     0     2.3   11.2    7.4    3.8    0.12    0.30    0.46    0.57    0.60    0.68    0.04    0.14    0.29    0.24    0.24    0.41   25.39   21.68    0.01    0.00    0.00   25.39   12.10
 1997 253   106     0     0     2.4   11.3    7.4    3.9    0.12    0.29    0.44    0.55    0.60    0.70    0.06    0.15    0.30    0.25    0.24    0.41   25.66   21.87    0.02    0.00    0.00   25.66   12.23
 1997 254   107     0     0     2.9   10.9    6.9    4.0    0.15    0.29    0.42    0.50    0.53    0.67    0.06    0.15    0.31    0.26    0.24    0.41   25.93   22.07    0.02    0.00    0.00   25.93   12.36
 1997 255   108     0     0     3.2   10.8    6.8    4.0    0.21    0.32    0.42    0.49    0.50    0.65    0.05    0.15    0.31    0.26    0.24    0.41   26.20   22.33    0.02    0.00    0.00   26.20   12.46
 1997 256   109     0     0     3.2   11.0    7.0    4.0    0.13    0.24    0.40    0.56    0.57    0.67    0.02    0.13    0.31    0.27    0.24    0.42   26.47   22.63    0.02    0.00    0.00   26.47   12.49
 1997 257   110     0     0     3.8   10.6    6.5    4.1    0.15    0.24    0.37    0.50    0.50    0.63    0.04    0.14    0.32    0.27    0.25    0.42   26.74   22.81    0.03    0.00    0.00   26.74   12.60
 1997 258   111     0     0     3.9   10.7    6.6    4.1    0.15    0.27    0.38    0.50    0.53    0.64    0.04    0.14    0.33    0.28    0.25    0.42   27.01   23.05    0.04    0.00    0.00   27.01   12.64
 1997 259   112     0     0     4.2   10.6    6.5    4.1    0.18    0.29    0.38    0.48    0.49    0.62    0.05    0.14    0.33    0.28    0.25    0.42   27.28   23.30    0.04    0.00    0.00   27.28   12.73
 1997 260   113     0     0     4.2   10.8    6.7    4.1    0.15    0.30    0.42    0.51    0.52    0.63    0.04    0.13    0.33    0.28    0.25    0.42   27.56   23.60    0.05    0.00    0.00   27.56   12.77
 1997 261   114     0     0     4.3   10.9    6.8    4.1    0.11    0.25    0.43    0.55    0.53    0.63    0.05    0.14    0.33    0.28    0.24    0.42   27.83   23.85    0.05    0.00    0.00   27.83   12.87
 1997 262   115     0     0     4.8   10.5    6.3    4.2    0.13    0.24    0.39    0.49    0.49    0.61    0.06    0.15    0.34    0.29    0.25    0.42   28.09   24.04    0.06    0.00    0.00   28.09   13.01
 1997 263   116     0     0     5.0   10.5    6.3    4.2    0.18    0.27    0.38    0.48    0.48    0.60    0.05    0.15    0.34    0.29    0.25    0.42   28.35   24.30    0.07    0.00    0.00   28.35   13.04
 1997 264   117     0     0     5.1   10.7    6.5    4.2    0.23    0.30    0.40    0.49    0.50    0.60    0.04    0.14    0.34    0.29    0.25    0.42   28.62   24.58    0.07    0.00    0.00   28.62   13.08
 1997 265   118     0     0     5.1   10.9    6.8    4.1    0.16    0.30    0.45    0.54    0.53    0.61    0.02    0.13    0.34    0.29    0.25    0.42   28.88   24.90    0.07    0.00    0.00   28.88   13.11
 1997 266   119     0     0     5.3   10.7    6.6    4.2    0.17    0.29    0.43    0.49    0.50    0.60    0.04    0.14    0.34    0.29    0.24    0.42   29.15   25.13    0.07    0.00    0.00   29.15   13.30
 1997 267   120     0     0     5.3   11.0    6.8    4.2    0.18    0.32    0.45    0.52    0.53    0.61    0.04    0.14    0.34    0.29    0.24    0.42   29.42   25.41    0.07    0.00    0.00   29.42   13.34
 1997 268   121     0     0     5.4   10.9    6.8    4.1    0.21    0.34    0.46    0.49    0.51    0.61    0.05    0.14    0.34    0.28    0.24    0.42   29.70   25.69    0.07    0.00    0.00   29.70   13.53
 1997 269   122     0     0     5.5   11.1    7.0    4.1    0.25    0.37    0.48    0.51    0.53    0.61    0.04    0.13    0.34    0.28    0.24    0.42   29.97   25.98    0.07    0.00    0.00   29.97   13.57
 1997 270   123     0     0     5.6   11.0    7.0    4.1    0.11    0.21    0.38    0.53    0.63    0.66    0.04    0.12    0.33    0.28    0.24    0.42   30.23   26.29    0.07    0.00    0.00   30.23   13.77

*DSSAT Cropping System Model Ver. 4.5.1.023 -Stub         NOV 08, 2014; 00:45:26
                                                                                
*RUN   3        : 97 DATE2 CHINESE          CRGRO045 GHNY9701    3              
 MODEL          : CRGRO045 - Peanut                                             
 EXPERIMENT     : GHNY9701 PN 1997 VARIETY X PLANTING DATE EXPERIMENT           
 DATA PATH      :                                                               
 TREATMENT  3   : 97 DATE2 CHINESE          CRGRO045                            
  
!                                                            NO3 (ppm) by soil depth (cm):                   NH4 (ppm) by soil depth (cm):
!                                                            0-5    5-15   15-30   30-45   45-60   60-90     0-5    5-15   15-30   30-45   45-60   60-90
@YEAR DOY   DAS  NAPC  NI#M    NLCC   NIAD   NITD   NHTD    NI1D    NI2D    NI3D    NI4D    NI5D    NI6D    NH1D    NH2D    NH3D    NH4D    NH5D    NH6D    NMNC    NITC    NDNC    NIMC    AMLC   NNMNC    NUCM
 1997 175     0     0     0     0.0    0.3    0.1    0.1    0.01    0.01    0.01    0.01    0.01    0.01    0.01    0.01    0.01    0.01    0.01    0.01    0.00    0.00    0.00    0.00    0.00    0.00    0.00
 1997 176     1     0     0     0.0    0.5    0.2    0.3    0.02    0.01    0.01    0.01    0.01    0.01    0.02    0.03    0.03    0.02    0.02    0.02    0.20    0.02    0.00    0.00    0.00    0.20    0.00
 1997 177     2     0     0     0.0    0.7    0.2    0.5    0.05    0.02    0.01    0.01    0.01    0.01    0.02    0.04    0.04    0.04    0.04    0.03    0.39    0.06    0.00    0.00    0.00    0.39    0.00
 1997 178     3     0     0     0.0    0.9    0.3    0.6    0.08    0.03    0.02    0.01    0.01    0.01    0.02    0.05    0.06    0.05    0.05    0.04    0.60    0.12    0.00    0.00    0.00    0.60    0.00
 1997 179     4     0     0     0.0    1.1    0.3    0.8    0.04    0.05    0.03    0.02    0.02    0.01    0.01    0.06    0.07    0.06    0.06    0.04    0.81    0.19    0.00    0.00    0.00    0.81    0.00
 1997 180     5     0     0     0.0    1.3    0.4    0.9    0.05    0.05    0.03    0.03    0.02    0.01    0.03    0.07    0.09    0.07    0.08    0.05    1.03    0.25    0.00    0.00    0.00    1.03    0.00
 1997 181     6     0     0     0.0    1.5    0.5    1.0    0.09    0.07    0.04    0.03    0.03    0.02    0.02    0.08    0.10    0.09    0.09    0.06    1.26    0.36    0.00    0.00    0.00    1.26    0.00
 1997 182     7     0     0     0.0    1.8    0.6    1.2    0.11    0.09    0.05    0.04    0.04    0.02    0.03    0.08    0.11    0.10    0.10    0.07    1.50    0.45    0.00    0.00    0.00    1.50    0.00
 1997 183     8     0     0     0.0    2.0    0.7    1.3    0.17    0.11    0.06    0.05    0.04    0.02    0.02    0.08    0.12    0.11    0.11    0.08    1.73    0.58    0.00    0.00    0.00    1.73    0.00
 1997 184     9     0     0     0.0    2.2    0.8    1.4    0.19    0.13    0.07    0.05    0.05    0.02    0.02    0.08    0.13    0.12    0.12    0.09    1.97    0.71    0.00    0.00    0.00    1.97    0.00
 1997 185    10     0     0     0.0    2.5    1.0    1.5    0.22    0.16    0.08    0.06    0.06    0.02    0.02    0.09    0.14    0.12    0.13    0.10    2.20    0.84    0.00    0.00    0.00    2.20    0.00
 1997 186    11     0     0     0.0    2.7    1.1    1.6    0.25    0.18    0.09    0.07    0.07    0.03    0.02    0.09    0.15    0.13    0.13    0.10    2.42    0.97    0.00    0.00    0.00    2.42    0.00
 1997 187    12     0     0     0.0    2.9    1.2    1.7    0.27    0.20    0.10    0.08    0.08    0.03    0.02    0.09    0.16    0.14    0.14    0.11    2.65    1.10    0.00    0.00    0.00    2.65    0.00
 1997 188    13     0     0     0.0    3.1    1.4    1.8    0.30    0.23    0.12    0.09    0.09    0.03    0.02    0.09    0.17    0.15    0.15    0.12    2.87    1.25    0.00    0.00    0.00    2.87    0.00
 1997 189    14     0     0     0.0    3.3    1.5    1.8    0.32    0.25    0.13    0.10    0.10    0.03    0.02    0.09    0.17    0.15    0.15    0.13    3.10    1.39    0.00    0.00    0.00    3.10    0.00
 1997 190    15     0     0     0.0    3.6    1.7    1.9    0.35    0.28    0.15    0.11    0.11    0.04    0.02    0.09    0.18    0.16    0.16    0.13    3.32    1.54    0.00    0.00    0.00    3.32    0.00
 1997 191    16     0     0     0.0    3.8    1.8    2.0    0.14    0.31    0.20    0.14    0.12    0.04    0.01    0.09    0.18    0.16    0.17    0.14    3.56    1.71    0.00    0.00    0.00    3.56    0.00
 1997 192    17     0     0     0.0    4.0    1.9    2.1    0.18    0.29    0.20    0.15    0.13    0.05    0.03    0.10    0.19    0.17    0.17    0.15    3.79    1.84    0.00    0.00    0.00    3.79    0.00
 1997 193    18     0     0     0.0    4.3    2.1    2.2    0.25    0.30    0.22    0.16    0.15    0.06    0.02    0.10    0.20    0.18    0.18    0.15    4.03    2.01    0.00    0.00    0.00    4.03    0.00
 1997 194    19     0     0     0.0    4.5    2.3    2.2    0.35    0.32    0.23    0.18    0.16    0.06    0.02    0.10    0.20    0.18    0.18    0.16    4.27    2.19    0.00    0.00    0.00    4.27    0.00
 1997 195    20     0     0     0.1    4.7    2.5    2.3    0.15    0.27    0.28    0.23    0.19    0.07    0.02    0.10    0.21    0.18    0.19    0.17    4.51    2.38    0.00    0.00    0.00    4.51    0.00
 1997 196    21     0     0     0.3    4.8    2.4    2.4    0.11    0.15    0.20    0.22    0.22    0.13    0.03    0.11    0.22    0.19    0.19    0.17    4.75    2.52    0.00    0.00    0.00    4.75    0.00
 1997 197    22     0     0     0.4    4.9    2.4    2.5    0.14    0.16    0.19    0.22    0.22    0.14    0.04    0.11    0.23    0.20    0.20    0.18    4.99    2.65    0.00    0.00    0.00    4.99    0.00
 1997 198    23     0     0     0.5    5.0    2.5    2.5    0.18    0.18    0.20    0.21    0.21    0.14    0.04    0.11    0.23    0.21    0.20    0.19    5.22    2.81    0.00    0.00    0.00    5.22    0.00
 1997 199    24     0     0     0.5    5.2    2.6    2.6    0.25    0.21    0.21    0.22    0.21    0.14    0.02    0.11    0.24    0.21    0.21    0.19    5.46    3.01    0.00    0.00    0.00    5.46    0.00
 1997 200    25     0     0     0.5    5.5    2.8    2.6    0.32    0.24    0.23    0.23    0.23    0.15    0.02    0.10    0.24    0.21    0.21    0.20    5.69    3.20    0.00    0.00    0.00    5.69    0.00
 1997 201    26     0     0     0.5    5.7    3.0    2.7    0.40    0.26    0.24    0.25    0.24    0.15    0.02    0.10    0.24    0.21    0.21    0.20    5.92    3.40    0.00    0.00    0.00    5.92    0.00
 1997 202    27     0     0     0.5    5.9    3.2    2.7    0.43    0.29    0.26    0.26    0.25    0.16    0.02    0.10    0.24    0.22    0.21    0.21    6.14    3.59    0.00    0.00    0.00    6.14    0.00
 1997 203    28     0     0     0.5    6.1    3.4    2.7    0.46    0.31    0.28    0.28    0.27    0.16    0.02    0.10    0.24    0.22    0.22    0.21    6.37    3.79    0.00    0.00    0.00    6.37    0.00
 1997 204    29     0     0     0.5    6.4    3.6    2.7    0.47    0.35    0.30    0.29    0.28    0.16    0.02    0.10    0.24    0.22    0.22    0.22    6.60    3.99    0.00    0.00    0.00    6.60    0.00
 1997 205    30     0     0     0.5    6.6    3.8    2.8    0.48    0.38    0.33    0.31    0.30    0.17    0.03    0.10    0.24    0.22    0.22    0.23    6.83    4.20    0.00    0.00    0.00    6.83    0.00
 1997 206    31     0     0     0.5    6.9    4.1    2.8    0.52    0.41    0.35    0.33    0.31    0.17    0.02    0.10    0.24    0.22    0.22    0.23    7.08    4.42    0.00    0.00    0.00    7.08    0.00
 1997 207    32     0     0     0.5    7.1    4.3    2.8    0.55    0.44    0.37    0.34    0.33    0.18    0.02    0.10    0.24    0.22    0.22    0.24    7.32    4.64    0.00    0.00    0.00    7.32    0.01
 1997 208    33     0     0     0.5    7.3    4.5    2.8    0.58    0.47    0.39    0.36    0.35    0.18    0.02    0.09    0.24    0.22    0.22    0.24    7.57    4.87    0.00    0.00    0.00    7.57    0.01
 1997 209    34     0     0     0.5    7.6    4.7    2.8    0.60    0.50    0.42    0.38    0.36    0.19    0.02    0.09    0.24    0.22    0.22    0.24    7.82    5.11    0.00    0.00    0.00    7.82    0.02
 1997 210    35     0     0     0.5    7.8    5.0    2.9    0.58    0.55    0.44    0.40    0.38    0.20    0.02    0.09    0.24    0.22    0.22    0.25    8.07    5.35    0.00    0.00    0.00    8.07    0.02
 1997 211    36     0     0     0.5    8.0    5.2    2.9    0.30    0.54    0.54    0.44    0.40    0.20    0.03    0.09    0.24    0.22    0.22    0.25    8.32    5.58    0.00    0.00    0.00    8.32    0.06
 1997 212    37     0     0     0.5    8.2    5.3    2.9    0.34    0.50    0.53    0.47    0.43    0.22    0.04    0.10    0.24    0.22    0.22    0.26    8.58    5.79    0.00    0.00    0.00    8.58    0.13
 1997 213    38     0     0     0.5    8.4    5.5    2.9    0.40    0.52    0.53    0.49    0.44    0.22    0.03    0.10    0.24    0.22    0.22    0.26    8.82    6.02    0.00    0.00    0.00    8.82    0.17
 1997 214    39     0     0     0.5    8.6    5.6    3.0    0.49    0.52    0.53    0.50    0.45    0.23    0.02    0.10    0.24    0.22    0.22    0.27    9.06    6.24    0.00    0.00    0.00    9.06    0.26
 1997 215    40     0     0     0.5    8.7    5.7    3.0    0.52    0.51    0.53    0.52    0.47    0.23    0.02    0.10    0.24    0.22    0.22    0.27    9.29    6.45    0.00    0.00    0.00    9.29    0.34
 1997 216    41     0     0     0.5    8.8    5.8    3.0    0.54    0.51    0.53    0.53    0.49    0.24    0.02    0.10    0.24    0.22    0.22    0.27    9.53    6.66    0.00    0.00    0.00    9.53    0.46
 1997 217    42     0     0     0.7    8.8    5.8    3.0    0.14    0.31    0.46    0.57    0.59    0.32    0.02    0.10    0.24    0.22    0.22    0.28    9.77    6.88    0.00    0.00    0.00    9.77    0.54
 1997 218    43     0     0     1.0    8.7    5.6    3.1    0.18    0.30    0.42    0.51    0.53    0.35    0.04    0.11    0.25    0.23    0.23    0.28   10.01    7.03    0.00    0.00    0.00   10.01    0.56
 1997 219    44     0     0     1.1    8.8    5.7    3.2    0.23    0.33    0.42    0.50    0.51    0.36    0.03    0.11    0.26    0.23    0.23    0.29   10.25    7.24    0.00    0.00    0.00   10.25    0.60
 1997 220    45     0     0     1.1    9.0    5.9    3.2    0.30    0.36    0.44    0.51    0.52    0.37    0.02    0.10    0.26    0.23    0.23    0.29   10.50    7.47    0.00    0.00    0.00   10.50    0.62
 1997 221    46     0     0     1.1    9.2    6.0    3.2    0.39    0.39    0.46    0.51    0.52    0.37    0.02    0.10    0.26    0.23    0.23    0.29   10.74    7.70    0.00    0.00    0.00   10.74    0.67
 1997 222    47     0     0     1.1    9.4    6.2    3.2    0.43    0.42    0.48    0.52    0.53    0.38    0.02    0.10    0.25    0.23    0.23    0.30   10.97    7.92    0.00    0.00    0.00   10.97    0.72
 1997 223    48     0     0     1.1    9.6    6.4    3.2    0.46    0.45    0.51    0.52    0.54    0.39    0.02    0.10    0.25    0.23    0.23    0.30   11.21    8.15    0.00    0.00    0.00   11.21    0.78
 1997 224    49     0     0     1.1    9.8    6.6    3.2    0.49    0.47    0.53    0.53    0.55    0.39    0.02    0.10    0.25    0.23    0.23    0.30   11.45    8.39    0.00    0.00    0.00   11.45    0.83
 1997 225    50     0     0     1.1    9.9    6.7    3.2    0.52    0.50    0.53    0.53    0.55    0.40    0.01    0.09    0.25    0.23    0.23    0.31   11.69    8.62    0.00    0.00    0.00   11.69    0.95
 1997 226    51     0     0     1.1   10.0    6.8    3.2    0.54    0.53    0.53    0.54    0.56    0.41    0.01    0.09    0.25    0.23    0.23    0.31   11.93    8.86    0.00    0.00    0.00   11.93    1.07
 1997 227    52     0     0     1.1   10.1    6.9    3.2    0.57    0.53    0.53    0.54    0.57    0.41    0.01    0.09    0.25    0.23    0.23    0.31   12.16    9.09    0.00    0.00    0.00   12.16    1.23
 1997 228    53     0     0     1.1   10.2    6.9    3.2    0.57    0.53    0.53    0.54    0.57    0.42    0.02    0.08    0.25    0.23    0.23    0.32   12.40    9.31    0.00    0.00    0.00   12.40    1.40
 1997 229    54     0     0     1.1   10.2    7.0    3.2    0.59    0.54    0.53    0.55    0.58    0.43    0.02    0.08    0.25    0.23    0.23    0.32   12.63    9.54    0.00    0.00    0.00   12.63    1.55
 1997 230    55     0     0     1.2   10.3    7.1    3.2    0.12    0.27    0.54    0.69    0.67    0.46    0.02    0.08    0.24    0.23    0.23    0.32   12.86    9.77    0.00    0.00    0.00   12.86    1.70
 1997 231    56     0     0     1.5   10.1    6.8    3.3    0.13    0.27    0.48    0.62    0.63    0.50    0.03    0.09    0.25    0.23    0.23    0.33   13.12    9.95    0.00    0.00    0.00   13.12    1.85
 1997 232    57     0     0     1.5   10.2    6.9    3.3    0.21    0.30    0.49    0.60    0.63    0.50    0.02    0.09    0.26    0.24    0.24    0.33   13.38   10.19    0.00    0.00    0.00   13.38    1.96
 1997 233    58     0     0     1.5   10.3    7.0    3.3    0.15    0.29    0.50    0.61    0.64    0.52    0.03    0.09    0.26    0.23    0.23    0.33   13.64   10.45    0.00    0.00    0.00   13.64    2.07
 1997 234    59     0     0     1.7   10.3    6.9    3.4    0.20    0.30    0.49    0.58    0.62    0.53    0.04    0.10    0.26    0.24    0.24    0.33   13.91   10.67    0.00    0.00    0.00   13.91    2.20
 1997 235    60     0     0     1.7   10.4    7.1    3.4    0.28    0.34    0.51    0.57    0.62    0.54    0.02    0.10    0.26    0.23    0.24    0.34   14.18   10.95    0.00    0.00    0.00   14.18    2.35
 1997 236    61     0     0     1.7   10.6    7.2    3.4    0.32    0.37    0.53    0.56    0.61    0.54    0.03    0.10    0.26    0.23    0.23    0.34   14.44   11.21    0.00    0.00    0.00   14.44    2.49
 1997 237    62     0     0     1.7   10.6    7.2    3.4    0.22    0.39    0.52    0.57    0.62    0.55    0.02    0.10    0.25    0.23    0.23    0.34   14.71   11.48    0.00    0.00    0.00   14.71    2.75
 1997 238    63     0     0     1.7   10.6    7.2    3.4    0.27    0.41    0.49    0.56    0.62    0.55    0.04    0.10    0.25    0.23    0.23    0.34   14.98   11.74    0.00    0.00    0.00   14.98    3.04
 1997 239    64     0     0     1.7   10.7    7.3    3.4    0.27    0.43    0.52    0.56    0.62    0.56    0.02    0.10    0.25    0.23    0.23    0.35   15.25   12.02    0.00    0.00    0.00   15.25    3.18
 1997 240    65     0     0     1.7   10.6    7.3    3.4    0.31    0.44    0.48    0.55    0.62    0.56    0.04    0.10    0.25    0.23    0.23    0.35   15.52   12.27    0.00    0.00    0.00   15.52    3.48
 1997 241    66     0     0     1.7   10.7    7.3    3.4    0.23    0.43    0.52    0.56    0.62    0.57    0.03    0.10    0.25    0.23    0.23    0.35   15.79   12.53    0.00    0.00    0.00   15.79    3.64
 1997 242    67     0     0     1.8   10.6    7.2    3.4    0.29    0.43    0.47    0.53    0.60    0.58    0.04    0.10    0.25    0.23    0.23    0.35   16.06   12.77    0.00    0.00    0.00   16.06    3.94
 1997 243    68     0     0     1.8   10.7    7.3    3.4    0.38    0.46    0.49    0.52    0.59    0.58    0.02    0.10    0.25    0.23    0.23    0.35   16.33   13.04    0.00    0.00    0.00   16.33    4.10
 1997 244    69     0     0     1.8   10.8    7.4    3.4    0.41    0.50    0.51    0.51    0.59    0.59    0.03    0.10    0.25    0.23    0.23    0.36   16.59   13.30    0.00    0.00    0.00   16.59    4.24
 1997 245    70     0     0     1.8   10.8    7.4    3.4    0.46    0.53    0.49    0.50    0.59    0.59    0.02    0.10    0.25    0.23    0.23    0.36   16.85   13.56    0.00    0.00    0.00   16.85    4.50
 1997 246    71     0     0     1.8   10.9    7.5    3.4    0.49    0.49    0.51    0.52    0.58    0.59    0.02    0.10    0.25    0.23    0.23    0.36   17.11   13.82    0.00    0.00    0.00   17.11    4.67
 1997 247    72     0     0     1.8   10.9    7.5    3.4    0.51    0.53    0.49    0.52    0.58    0.60    0.02    0.10    0.25    0.23    0.23    0.36   17.36   14.07    0.00    0.00    0.00   17.36    4.91
 1997 248    73     0     0     1.8   11.0    7.5    3.4    0.24    0.46    0.60    0.54    0.58    0.60    0.03    0.10    0.25    0.23    0.23    0.36   17.62   14.31    0.00    0.00    0.00   17.62    5.12
 1997 249    74     0     0     1.8   10.9    7.4    3.5    0.28    0.44    0.53    0.56    0.59    0.60    0.04    0.10    0.25    0.23    0.23    0.37   17.88   14.54    0.00    0.00    0.00   17.88    5.44
 1997 250    75     0     0     1.8   10.9    7.4    3.5    0.35    0.47    0.48    0.54    0.59    0.60    0.02    0.11    0.25    0.23    0.23    0.37   18.14   14.80    0.00    0.00    0.00   18.14    5.75
 1997 251    76     0     0     1.8   11.0    7.5    3.5    0.18    0.35    0.50    0.58    0.63    0.63    0.03    0.10    0.25    0.23    0.23    0.37   18.40   15.05    0.00    0.00    0.00   18.40    5.90
 1997 252    77     0     0     2.0   10.9    7.3    3.6    0.14    0.28    0.45    0.56    0.63    0.66    0.04    0.11    0.26    0.23    0.24    0.37   18.67   15.25    0.00    0.00    0.00   18.67    6.05
 1997 253    78     0     0     2.3   10.8    7.1    3.6    0.15    0.28    0.43    0.52    0.61    0.67    0.04    0.12    0.27    0.24    0.24    0.37   18.93   15.45    0.00    0.00    0.00   18.93    6.17
 1997 254    79     0     0     2.7   10.5    6.8    3.7    0.19    0.30    0.42    0.48    0.55    0.64    0.04    0.12    0.27    0.24    0.24    0.38   19.20   15.67    0.00    0.00    0.00   19.20    6.29
 1997 255    80     0     0     2.7   10.6    7.0    3.7    0.27    0.34    0.44    0.49    0.53    0.64    0.02    0.11    0.27    0.25    0.24    0.38   19.46   15.95    0.00    0.00    0.00   19.46    6.37
 1997 256    81     0     0     3.0   10.6    6.9    3.6    0.13    0.23    0.39    0.53    0.58    0.66    0.03    0.11    0.27    0.25    0.24    0.38   19.72   16.21    0.00    0.00    0.00   19.72    6.45
 1997 257    82     0     0     3.5   10.2    6.5    3.7    0.16    0.24    0.37    0.47    0.52    0.63    0.04    0.11    0.28    0.25    0.25    0.38   19.99   16.41    0.00    0.00    0.00   19.99    6.56
 1997 258    83     0     0     3.6   10.3    6.6    3.7    0.18    0.27    0.38    0.48    0.51    0.63    0.02    0.11    0.28    0.25    0.25    0.38   20.25   16.67    0.00    0.00    0.00   20.25    6.63
 1997 259    84     0     0     3.7   10.4    6.7    3.7    0.21    0.30    0.40    0.49    0.50    0.63    0.04    0.11    0.28    0.25    0.25    0.39   20.52   16.92    0.00    0.00    0.00   20.52    6.71
 1997 260    85     0     0     3.7   10.6    6.9    3.7    0.18    0.29    0.43    0.53    0.53    0.64    0.02    0.11    0.28    0.25    0.25    0.39   20.79   17.22    0.00    0.00    0.00   20.79    6.74
 1997 261    86     0     0     3.9   10.5    6.8    3.7    0.12    0.25    0.41    0.52    0.55    0.65    0.04    0.11    0.28    0.25    0.25    0.39   21.06   17.45    0.00    0.00    0.00   21.06    6.90
 1997 262    87     0     0     4.4   10.2    6.4    3.8    0.15    0.25    0.38    0.47    0.50    0.62    0.04    0.12    0.29    0.26    0.25    0.39   21.32   17.66    0.00    0.00    0.00   21.32    7.02
 1997 263    88     0     0     4.4   10.4    6.6    3.8    0.22    0.28    0.39    0.48    0.51    0.62    0.02    0.12    0.29    0.26    0.25    0.39   21.58   17.92    0.00    0.00    0.00   21.58    7.04
 1997 264    89     0     0     4.4   10.6    6.8    3.8    0.26    0.32    0.42    0.50    0.53    0.63    0.03    0.11    0.29    0.26    0.25    0.39   21.83   18.19    0.00    0.00    0.00   21.83    7.07
 1997 265    90     0     0     4.5   10.7    7.0    3.8    0.17    0.29    0.45    0.54    0.55    0.63    0.02    0.11    0.28    0.25    0.25    0.39   22.09   18.46    0.00    0.00    0.00   22.09    7.15
 1997 266    91     0     0     4.7   10.6    6.8    3.8    0.20    0.29    0.43    0.51    0.53    0.63    0.04    0.11    0.29    0.26    0.25    0.40   22.36   18.69    0.00    0.00    0.00   22.36    7.30
 1997 267    92     0     0     4.7   10.8    7.0    3.8    0.21    0.32    0.45    0.53    0.53    0.63    0.03    0.11    0.29    0.26    0.25    0.40   22.63   18.96    0.00    0.00    0.00   22.63    7.38
 1997 268    93     0     0     4.8   10.9    7.1    3.8    0.25    0.35    0.48    0.51    0.52    0.64    0.04    0.11    0.28    0.26    0.25    0.40   22.90   19.24    0.00    0.00    0.00   22.90    7.54
 1997 269    94     0     0     4.8   11.0    7.2    3.8    0.30    0.39    0.50    0.50    0.52    0.64    0.03    0.11    0.28    0.25    0.24    0.40   23.16   19.52    0.00    0.00    0.00   23.16    7.70
 1997 270    95     0     0     5.4   10.5    6.8    3.8    0.13    0.21    0.36    0.49    0.55    0.69    0.02    0.10    0.28    0.25    0.24    0.40   23.42   19.80    0.00    0.00    0.00   23.42    7.78
 1997 271    96     0     0     6.0   10.1    6.3    3.8    0.17    0.22    0.35    0.45    0.49    0.63    0.04    0.11    0.28    0.26    0.25    0.40   23.68   19.99    0.00    0.00    0.00   23.68    7.82
 1997 272    97     0     0     6.1   10.3    6.5    3.8    0.22    0.26    0.37    0.46    0.50    0.63    0.02    0.11    0.28    0.26    0.25    0.40   23.95   20.28    0.00    0.00    0.00   23.95    7.84
 1997 273    98     0     0     6.1   10.5    6.7    3.8    0.26    0.31    0.40    0.48    0.51    0.63    0.03    0.10    0.27    0.25    0.25    0.41   24.23   20.57    0.00    0.00    0.00   24.23    7.87
 1997 274    99     0     0     6.1   10.7    7.0    3.8    0.34    0.35    0.43    0.51    0.51    0.63    0.02    0.10    0.27    0.25    0.25    0.41   24.51   20.90    0.00    0.00    0.00   24.51    7.95
 1997 275   100     0     0     6.1   10.9    7.2    3.7    0.20    0.34    0.49    0.56    0.53    0.64    0.03    0.09    0.27    0.25    0.24    0.41   24.79   21.21    0.00    0.00    0.00   24.79    8.02
 1997 276   101     0     0     6.2   11.0    7.2    3.7    0.25    0.35    0.49    0.54    0.53    0.64    0.04    0.10    0.27    0.24    0.24    0.41   25.08   21.49    0.00    0.00    0.00   25.08    8.18
 1997 277   102     0     0     6.2   11.1    7.4    3.7    0.32    0.39    0.52    0.53    0.53    0.65    0.02    0.10    0.26    0.24    0.24    0.41   25.36   21.80    0.00    0.00    0.00   25.36    8.33

*DSSAT Cropping System Model Ver. 4.5.1.023 -Stub         NOV 08, 2014; 00:45:26
                                                                                
*RUN   4        : 97 DATE2 F-MIX            CRGRO045 GHNY9701    4              
 MODEL          : CRGRO045 - Peanut                                             
 EXPERIMENT     : GHNY9701 PN 1997 VARIETY X PLANTING DATE EXPERIMENT           
 DATA PATH      :                                                               
 TREATMENT  4   : 97 DATE2 F-MIX            CRGRO045                            
  
!                                                            NO3 (ppm) by soil depth (cm):                   NH4 (ppm) by soil depth (cm):
!                                                            0-5    5-15   15-30   30-45   45-60   60-90     0-5    5-15   15-30   30-45   45-60   60-90
@YEAR DOY   DAS  NAPC  NI#M    NLCC   NIAD   NITD   NHTD    NI1D    NI2D    NI3D    NI4D    NI5D    NI6D    NH1D    NH2D    NH3D    NH4D    NH5D    NH6D    NMNC    NITC    NDNC    NIMC    AMLC   NNMNC    NUCM
 1997 175     0     0     0     0.0    0.3    0.1    0.1    0.01    0.01    0.01    0.01    0.01    0.01    0.01    0.01    0.01    0.01    0.01    0.01    0.00    0.00    0.00    0.00    0.00    0.00    0.00
 1997 176     1     0     0     0.0    0.5    0.2    0.3    0.02    0.01    0.01    0.01    0.01    0.01    0.02    0.03    0.03    0.02    0.02    0.02    0.20    0.02    0.00    0.00    0.00    0.20    0.00
 1997 177     2     0     0     0.0    0.7    0.2    0.5    0.05    0.02    0.01    0.01    0.01    0.01    0.02    0.04    0.04    0.04    0.04    0.03    0.39    0.06    0.00    0.00    0.00    0.39    0.00
 1997 178     3     0     0     0.0    0.9    0.3    0.6    0.08    0.03    0.02    0.01    0.01    0.01    0.02    0.05    0.06    0.05    0.05    0.04    0.60    0.12    0.00    0.00    0.00    0.60    0.00
 1997 179     4     0     0     0.0    1.1    0.3    0.8    0.04    0.05    0.03    0.02    0.02    0.01    0.01    0.06    0.07    0.06    0.06    0.04    0.81    0.19    0.00    0.00    0.00    0.81    0.00
 1997 180     5     0     0     0.0    1.3    0.4    0.9    0.05    0.05    0.03    0.03    0.02    0.01    0.03    0.07    0.09    0.07    0.08    0.05    1.03    0.25    0.00    0.00    0.00    1.03    0.00
 1997 181     6     0     0     0.0    1.5    0.5    1.0    0.09    0.07    0.04    0.03    0.03    0.02    0.02    0.08    0.10    0.09    0.09    0.06    1.26    0.36    0.00    0.00    0.00    1.26    0.00
 1997 182     7     0     0     0.0    1.8    0.6    1.2    0.11    0.09    0.05    0.04    0.04    0.02    0.03    0.08    0.11    0.10    0.10    0.07    1.50    0.45    0.00    0.00    0.00    1.50    0.00
 1997 183     8     0     0     0.0    2.0    0.7    1.3    0.17    0.11    0.06    0.05    0.04    0.02    0.02    0.08    0.12    0.11    0.11    0.08    1.73    0.58    0.00    0.00    0.00    1.73    0.00
 1997 184     9     0     0     0.0    2.2    0.8    1.4    0.19    0.13    0.07    0.05    0.05    0.02    0.02    0.08    0.13    0.12    0.12    0.09    1.97    0.71    0.00    0.00    0.00    1.97    0.00
 1997 185    10     0     0     0.0    2.5    1.0    1.5    0.22    0.16    0.08    0.06    0.06    0.02    0.02    0.09    0.14    0.12    0.13    0.10    2.20    0.84    0.00    0.00    0.00    2.20    0.00
 1997 186    11     0     0     0.0    2.7    1.1    1.6    0.25    0.18    0.09    0.07    0.07    0.03    0.02    0.09    0.15    0.13    0.13    0.10    2.42    0.97    0.00    0.00    0.00    2.42    0.00
 1997 187    12     0     0     0.0    2.9    1.2    1.7    0.27    0.20    0.10    0.08    0.08    0.03    0.02    0.09    0.16    0.14    0.14    0.11    2.65    1.10    0.00    0.00    0.00    2.65    0.00
 1997 188    13     0     0     0.0    3.1    1.4    1.8    0.30    0.23    0.12    0.09    0.09    0.03    0.02    0.09    0.17    0.15    0.15    0.12    2.87    1.25    0.00    0.00    0.00    2.87    0.00
 1997 189    14     0     0     0.0    3.3    1.5    1.8    0.32    0.25    0.13    0.10    0.10    0.03    0.02    0.09    0.17    0.15    0.15    0.13    3.10    1.39    0.00    0.00    0.00    3.10    0.00
 1997 190    15     0     0     0.0    3.6    1.7    1.9    0.35    0.28    0.15    0.11    0.11    0.04    0.02    0.09    0.18    0.16    0.16    0.13    3.32    1.54    0.00    0.00    0.00    3.32    0.00
 1997 191    16     0     0     0.0    3.8    1.8    2.0    0.14    0.31    0.20    0.14    0.12    0.04    0.01    0.09    0.18    0.16    0.17    0.14    3.56    1.71    0.00    0.00    0.00    3.56    0.00
 1997 192    17     0     0     0.0    4.0    1.9    2.1    0.18    0.29    0.20    0.15    0.13    0.05    0.03    0.10    0.19    0.17    0.17    0.15    3.79    1.84    0.00    0.00    0.00    3.79    0.00
 1997 193    18     0     0     0.0    4.3    2.1    2.2    0.25    0.30    0.22    0.16    0.15    0.06    0.02    0.10    0.20    0.18    0.18    0.15    4.03    2.01    0.00    0.00    0.00    4.03    0.00
 1997 194    19     0     0     0.0    4.5    2.3    2.2    0.35    0.32    0.23    0.18    0.16    0.06    0.02    0.10    0.20    0.18    0.18    0.16    4.27    2.19    0.00    0.00    0.00    4.27    0.00
 1997 195    20     0     0     0.1    4.7    2.5    2.3    0.15    0.27    0.28    0.23    0.19    0.07    0.02    0.10    0.21    0.18    0.19    0.17    4.51    2.38    0.00    0.00    0.00    4.51    0.00
 1997 196    21     0     0     0.3    4.8    2.4    2.4    0.11    0.15    0.20    0.22    0.22    0.13    0.03    0.11    0.22    0.19    0.19    0.17    4.75    2.52    0.00    0.00    0.00    4.75    0.00
 1997 197    22     0     0     0.4    4.9    2.4    2.5    0.14    0.16    0.19    0.22    0.22    0.14    0.04    0.11    0.23    0.20    0.20    0.18    4.99    2.65    0.00    0.00    0.00    4.99    0.00
 1997 198    23     0     0     0.5    5.0    2.5    2.5    0.18    0.18    0.20    0.21    0.21    0.14    0.04    0.11    0.23    0.21    0.20    0.19    5.22    2.81    0.00    0.00    0.00    5.22    0.00
 1997 199    24     0     0     0.5    5.2    2.6    2.6    0.25    0.21    0.21    0.22    0.21    0.14    0.02    0.11    0.24    0.21    0.21    0.19    5.46    3.01    0.00    0.00    0.00    5.46    0.00
 1997 200    25     0     0     0.5    5.5    2.8    2.6    0.32    0.24    0.23    0.23    0.23    0.15    0.02    0.10    0.24    0.21    0.21    0.20    5.69    3.20    0.00    0.00    0.00    5.69    0.00
 1997 201    26     0     0     0.5    5.7    3.0    2.7    0.40    0.26    0.24    0.25    0.24    0.15    0.02    0.10    0.24    0.21    0.21    0.20    5.92    3.40    0.00    0.00    0.00    5.92    0.00
 1997 202    27     0     0     0.5    5.9    3.2    2.7    0.43    0.29    0.26    0.26    0.25    0.16    0.02    0.10    0.24    0.22    0.21    0.21    6.14    3.59    0.00    0.00    0.00    6.14    0.00
 1997 203    28     0     0     0.5    6.1    3.4    2.7    0.46    0.31    0.28    0.28    0.27    0.16    0.02    0.10    0.24    0.22    0.22    0.21    6.37    3.79    0.00    0.00    0.00    6.37    0.00
 1997 204    29     0     0     0.5    6.4    3.6    2.7    0.47    0.35    0.30    0.29    0.28    0.16    0.02    0.10    0.24    0.22    0.22    0.22    6.60    3.99    0.00    0.00    0.00    6.60    0.00
 1997 205    30     0     0     0.5    6.6    3.8    2.8    0.49    0.38    0.33    0.31    0.30    0.17    0.03    0.10    0.24    0.22    0.22    0.23    6.84    4.20    0.00    0.00    0.00    6.84    0.00
 1997 206    31     0     0     0.5    6.9    4.1    2.8    0.52    0.41    0.35    0.33    0.31    0.17    0.02    0.10    0.24    0.22    0.22    0.23    7.08    4.42    0.00    0.00    0.00    7.08    0.00
[...]
 1997 230    27     0     0     0.2    6.3    3.7    2.6    0.12    0.27    0.33    0.36    0.36    0.17    0.02    0.09    0.22    0.20    0.20    0.21    6.18    3.75    0.00    0.00    0.00    6.18    0.00
 1997 231    28     0     0     0.4    6.3    3.7    2.7    0.18    0.27    0.31    0.34    0.33    0.19    0.03    0.10    0.23    0.21    0.21    0.22    6.43    3.89    0.00    0.00    0.00    6.43    0.00
 1997 232    29     0     0     0.4    6.6    3.8    2.7    0.29    0.30    0.32    0.34    0.32    0.20    0.02    0.10    0.23    0.21    0.21    0.22    6.68    4.11    0.00    0.00    0.00    6.68    0.00
 1997 233    30     0     0     0.4    6.8    4.0    2.7    0.21    0.30    0.35    0.37    0.35    0.21    0.02    0.10    0.23    0.21    0.22    0.23    6.94    4.34    0.00    0.00    0.00    6.94    0.00
 1997 234    31     0     0     0.5    7.0    4.2    2.8    0.31    0.30    0.34    0.37    0.35    0.23    0.03    0.10    0.24    0.22    0.22    0.23    7.19    4.53    0.00    0.00    0.00    7.19    0.00
 1997 235    32     0     0     0.5    7.2    4.4    2.8    0.41    0.33    0.36    0.38    0.36    0.23    0.02    0.10    0.24    0.22    0.22    0.24    7.45    4.78    0.00    0.00    0.00    7.45    0.00
 1997 236    33     0     0     0.5    7.5    4.7    2.8    0.46    0.37    0.39    0.40    0.38    0.24    0.02    0.10    0.24    0.22    0.22    0.24    7.71    5.02    0.00    0.00    0.00    7.71    0.00
 1997 237    34     0     0     0.5    7.7    4.9    2.8    0.29    0.41    0.43    0.43    0.40    0.25    0.02    0.09    0.24    0.22    0.22    0.25    7.97    5.26    0.00    0.00    0.00    7.97    0.00
 1997 238    35     0     0     0.5    8.0    5.1    2.9    0.39    0.42    0.44    0.45    0.42    0.26    0.03    0.10    0.24    0.22    0.22    0.25    8.23    5.48    0.00    0.00    0.00    8.23    0.00
 1997 239    36     0     0     0.5    8.2    5.4    2.9    0.40    0.45    0.47    0.47    0.43    0.27    0.02    0.09    0.24    0.22    0.22    0.26    8.49    5.74    0.00    0.00    0.00    8.49    0.00
 1997 240    37     0     0     0.5    8.5    5.6    2.9    0.47    0.47    0.48    0.49    0.45    0.27    0.03    0.10    0.24    0.22    0.22    0.26    8.75    5.97    0.00    0.00    0.00    8.75    0.00
 1997 241    38     0     0     0.5    8.7    5.8    2.9    0.36    0.48    0.52    0.52    0.48    0.29    0.02    0.09    0.24    0.22    0.22    0.26    9.01    6.22    0.00    0.00    0.00    9.01    0.00
 1997 242    39     0     0     0.6    8.9    5.9    3.0    0.46    0.47    0.50    0.52    0.49    0.30    0.03    0.10    0.24    0.22    0.22    0.27    9.26    6.43    0.00    0.00    0.00    9.26    0.06
 1997 243    40     0     0     0.6    9.1    6.1    3.0    0.59    0.50    0.52    0.53    0.50    0.31    0.02    0.10    0.24    0.22    0.22    0.27    9.52    6.68    0.00    0.00    0.00    9.52    0.08
 1997 244    41     0     0     0.6    9.3    6.3    3.0    0.61    0.53    0.52    0.54    0.52    0.31    0.02    0.09    0.24    0.22    0.22    0.28    9.77    6.92    0.00    0.00    0.00    9.77    0.17
 1997 245    42     0     0     0.6    9.4    6.4    3.0    0.63    0.53    0.52    0.55    0.53    0.32    0.02    0.09    0.24    0.22    0.22    0.28   10.03    7.16    0.00    0.00    0.00   10.03    0.31
 1997 246    43     0     0     0.6    9.5    6.5    3.0    0.65    0.53    0.53    0.55    0.54    0.33    0.02    0.09    0.24    0.22    0.22    0.28   10.28    7.40    0.00    0.00    0.00   10.28    0.45
 1997 247    44     0     0     0.6    9.6    6.6    3.0    0.64    0.54    0.53    0.56    0.55    0.33    0.02    0.09    0.24    0.22    0.22    0.29   10.52    7.63    0.00    0.00    0.00   10.52    0.60
 1997 248    45     0     0     0.6    9.7    6.6    3.1    0.27    0.48    0.59    0.61    0.58    0.34    0.03    0.09    0.24    0.22    0.22    0.29   10.77    7.86    0.00    0.00    0.00   10.77    0.78
 1997 249    46     0     0     0.7    9.7    6.6    3.1    0.34    0.46    0.55    0.60    0.58    0.37    0.04    0.10    0.24    0.22    0.22    0.29   11.03    8.06    0.00    0.00    0.00   11.03    0.91
 1997 250    47     0     0     0.7    9.8    6.7    3.1    0.43    0.49    0.54    0.60    0.58    0.37    0.02    0.10    0.24    0.22    0.22    0.30   11.28    8.30    0.00    0.00    0.00   11.28    1.05
 1997 251    48     0     0     0.7    9.9    6.8    3.1    0.23    0.38    0.52    0.64    0.63    0.41    0.02    0.10    0.24    0.22    0.22    0.30   11.52    8.53    0.00    0.00    0.00   11.52    1.19
 1997 252    49     0     0     0.9    9.9    6.7    3.2    0.18    0.31    0.46    0.62    0.65    0.45    0.04    0.11    0.25    0.23    0.23    0.30   11.78    8.72    0.00    0.00    0.00   11.78    1.30
 1997 253    50     0     0     1.1    9.9    6.6    3.3    0.19    0.30    0.43    0.58    0.63    0.48    0.04    0.11    0.26    0.23    0.23    0.31   12.03    8.90    0.00    0.00    0.00   12.03    1.35
 1997 254    51     0     0     1.4    9.8    6.5    3.3    0.24    0.32    0.42    0.54    0.58    0.49    0.04    0.11    0.26    0.24    0.23    0.31   12.29    9.11    0.00    0.00    0.00   12.29    1.40
 1997 255    52     0     0     1.4    9.9    6.6    3.3    0.32    0.36    0.45    0.53    0.57    0.50    0.02    0.11    0.26    0.24    0.24    0.32   12.54    9.37    0.00    0.00    0.00   12.54    1.48
 1997 256    53     0     0     1.6    9.9    6.6    3.3    0.16    0.25    0.40    0.55    0.61    0.54    0.03    0.10    0.26    0.24    0.23    0.32   12.80    9.62    0.00    0.00    0.00   12.80    1.56
 1997 257    54     0     0     2.1    9.6    6.2    3.4    0.20    0.26    0.38    0.49    0.55    0.53    0.04    0.11    0.27    0.25    0.24    0.32   13.06    9.81    0.00    0.00    0.00   13.06    1.62
 1997 258    55     0     0     2.1    9.8    6.4    3.4    0.21    0.28    0.39    0.50    0.55    0.54    0.02    0.11    0.27    0.25    0.24    0.32   13.31   10.05    0.00    0.00    0.00   13.31    1.67
 1997 259    56     0     0     2.2    9.9    6.5    3.4    0.24    0.31    0.41    0.51    0.54    0.55    0.04    0.11    0.27    0.25    0.24    0.33   13.57   10.29    0.00    0.00    0.00   13.57    1.73
 1997 260    57     0     0     2.3   10.1    6.7    3.4    0.19    0.31    0.44    0.54    0.55    0.55    0.02    0.10    0.27    0.25    0.24    0.33   13.84   10.57    0.00    0.00    0.00   13.84    1.79
 1997 261    58     0     0     2.4   10.1    6.6    3.4    0.13    0.26    0.42    0.54    0.57    0.57    0.04    0.11    0.27    0.25    0.24    0.33   14.10   10.79    0.00    0.00    0.00   14.10    1.91
 1997 262    59     0     0     2.8    9.8    6.3    3.5    0.16    0.26    0.39    0.49    0.52    0.56    0.04    0.12    0.28    0.25    0.24    0.34   14.36   10.99    0.00    0.00    0.00   14.36    2.01
 1997 263    60     0     0     2.9    9.9    6.4    3.5    0.23    0.29    0.40    0.49    0.51    0.56    0.02    0.11    0.28    0.25    0.24    0.34   14.61   11.24    0.00    0.00    0.00   14.61    2.07
 1997 264    61     0     0     2.9   10.1    6.6    3.5    0.27    0.33    0.43    0.51    0.51    0.57    0.03    0.11    0.28    0.25    0.24    0.34   14.87   11.50    0.00    0.00    0.00   14.87    2.14
 1997 265    62     0     0     2.9   10.2    6.7    3.5    0.17    0.29    0.45    0.54    0.53    0.58    0.02    0.11    0.27    0.25    0.24    0.34   15.12   11.76    0.00    0.00    0.00   15.12    2.27
 1997 266    63     0     0     3.1   10.1    6.6    3.5    0.20    0.30    0.44    0.50    0.51    0.58    0.04    0.11    0.28    0.25    0.24    0.35   15.39   11.98    0.00    0.00    0.00   15.39    2.41
 1997 267    64     0     0     3.2   10.3    6.7    3.6    0.21    0.32    0.46    0.52    0.52    0.58    0.03    0.11    0.28    0.25    0.24    0.35   15.65   12.24    0.00    0.00    0.00   15.65    2.49
 1997 268    65     0     0     3.2   10.4    6.8    3.6    0.25    0.35    0.48    0.51    0.51    0.58    0.04    0.11    0.28    0.25    0.24    0.35   15.92   12.50    0.00    0.00    0.00   15.92    2.65
 1997 269    66     0     0     3.2   10.6    7.0    3.5    0.30    0.39    0.51    0.53    0.53    0.58    0.03    0.11    0.27    0.25    0.24    0.35   16.19   12.78    0.00    0.00    0.00   16.19    2.68
 1997 270    67     0     0     3.7   10.1    6.6    3.5    0.13    0.21    0.37    0.49    0.56    0.65    0.02    0.10    0.27    0.25    0.24    0.36   16.45   13.05    0.00    0.00    0.00   16.45    2.84
 1997 271    68     0     0     4.3    9.7    6.1    3.6    0.16    0.22    0.35    0.45    0.49    0.60    0.04    0.11    0.28    0.25    0.25    0.36   16.71   13.24    0.00    0.00    0.00   16.71    2.89
 1997 272    69     0     0     4.4    9.9    6.3    3.6    0.20    0.26    0.38    0.46    0.50    0.59    0.02    0.11    0.28    0.26    0.25    0.36   16.99   13.52    0.00    0.00    0.00   16.99    2.91
 1997 273    70     0     0     4.5   10.1    6.5    3.6    0.24    0.30    0.41    0.48    0.52    0.59    0.04    0.10    0.27    0.25    0.25    0.36   17.27   13.80    0.00    0.00    0.00   17.27    2.94
 1997 274    71     0     0     4.5   10.3    6.8    3.6    0.31    0.34    0.43    0.51    0.51    0.59    0.02    0.10    0.27    0.25    0.24    0.36   17.56   14.13    0.00    0.00    0.00   17.56    3.03
 1997 275    72     0     0     4.5   10.5    7.0    3.6    0.18    0.34    0.49    0.56    0.52    0.60    0.03    0.10    0.26    0.24    0.24    0.37   17.85   14.43    0.00    0.00    0.00   17.85    3.12
 1997 276    73     0     0     4.5   10.5    7.0    3.6    0.22    0.34    0.50    0.54    0.52    0.60    0.04    0.10    0.27    0.24    0.24    0.37   18.14   14.71    0.00    0.00    0.00   18.14    3.33
 1997 277    74     0     0     4.5   10.6    7.1    3.5    0.29    0.38    0.53    0.52    0.51    0.60    0.02    0.10    0.26    0.24    0.24    0.37   18.43   15.02    0.00    0.00    0.00   18.43    3.52
 1997 278    75     0     0     4.8   10.3    6.8    3.5    0.12    0.25    0.40    0.53    0.57    0.63    0.03    0.10    0.26    0.24    0.24    0.37   18.71   15.30    0.00    0.00    0.00   18.71    3.90
 1997 279    76     0     0     5.1   10.1    6.5    3.6    0.09    0.22    0.37    0.49    0.54    0.64    0.04    0.11    0.27    0.24    0.24    0.37   18.98   15.49    0.00    0.00    0.00   18.98    4.02
 1997 280    77     0     0     5.6    9.8    6.1    3.7    0.13    0.23    0.35    0.45    0.49    0.60    0.04    0.12    0.28    0.25    0.25    0.38   19.25   15.70    0.00    0.00    0.00   19.25    4.09
 1997 281    78     0     0     5.7   10.0    6.3    3.7    0.19    0.27    0.37    0.46    0.49    0.60    0.02    0.11    0.28    0.25    0.25    0.38   19.52   15.97    0.00    0.00    0.00   19.52    4.12
 1997 282    79     0     0     5.7   10.2    6.5    3.7    0.22    0.31    0.40    0.48    0.51    0.60    0.04    0.11    0.28    0.25    0.25    0.38   19.79   16.23    0.00    0.00    0.00   19.79    4.16
 1997 283    80     0     0     5.7   10.4    6.7    3.7    0.28    0.35    0.43    0.50    0.50    0.60    0.02    0.11    0.28    0.25    0.25    0.38   20.07   16.52    0.00    0.00    0.00   20.07    4.26
 1997 284    81     0     0     5.7   10.7    7.0    3.7    0.33    0.38    0.46    0.52    0.52    0.60    0.03    0.10    0.27    0.25    0.24    0.38   20.35   16.81    0.00    0.00    0.00   20.35    4.30
 1997 285    82     0     0     5.7   10.7    7.1    3.7    0.40    0.42    0.48    0.51    0.51    0.60    0.02    0.10    0.27    0.25    0.24    0.38   20.62   17.10    0.00    0.00    0.00   20.62    4.49
 1997 286    83     0     0     5.7   10.9    7.3    3.6    0.44    0.45    0.51    0.53    0.51    0.60    0.02    0.10    0.27    0.24    0.24    0.39   20.90   17.39    0.00    0.00    0.00   20.90    4.59
 1997 287    84     0     0     5.7   10.9    7.3    3.6    0.48    0.49    0.49    0.52    0.53    0.60    0.02    0.09    0.26    0.24    0.24    0.39   21.18   17.69    0.00    0.00    0.00   21.18    4.83
 1997 288    85     0     0     5.7   11.0    7.4    3.6    0.23    0.58    0.57    0.51    0.53    0.61    0.02    0.09    0.26    0.24    0.24    0.39   21.44   17.98    0.00    0.00    0.00   21.44    5.00
 1997 289    86     0     0     5.7   10.9    7.2    3.6    0.24    0.43    0.54    0.53    0.53    0.61    0.04    0.09    0.26    0.24    0.24    0.39   21.73   18.25    0.00    0.00    0.00   21.73    5.48
 1997 290    87     0     0     5.7   10.9    7.3    3.6    0.32    0.46    0.51    0.53    0.52    0.61    0.02    0.10    0.26    0.24    0.24    0.39   22.02   18.56    0.00    0.00    0.00   22.02    5.75
 1997 291    88     0     0     5.7   11.0    7.4    3.6    0.16    0.41    0.62    0.54    0.53    0.61    0.03    0.10    0.25    0.23    0.24    0.39   22.30   18.84    0.00    0.00    0.00   22.30    5.90
 1997 292    89     0     0     5.7   10.9    7.3    3.6    0.19    0.40    0.51    0.58    0.53    0.61    0.04    0.11    0.25    0.23    0.23    0.39   22.58   19.10    0.00    0.00    0.00   22.58    6.32
 1997 293    90     0     0     5.7   10.8    7.1    3.6    0.24    0.43    0.45    0.56    0.53    0.62    0.03    0.11    0.25    0.23    0.23    0.39   22.87   19.39    0.00    0.00    0.00   22.87    6.72
 1997 294    91     0     0     5.7   10.9    7.3    3.6    0.30    0.46    0.48    0.54    0.53    0.62    0.02    0.11    0.25    0.23    0.23    0.39   23.15   19.69    0.00    0.00    0.00   23.15    6.88
 1997 295    92     0     0     5.7   11.0    7.4    3.6    0.34    0.50    0.50    0.52    0.53    0.62    0.03    0.10    0.25    0.23    0.23    0.40   23.43   19.97    0.00    0.00    0.00   23.43    7.04
 1997 296    93     0     0     5.7   11.1    7.5    3.6    0.38    0.54    0.53    0.51    0.54    0.62    0.02    0.10    0.25    0.23    0.23    0.40   23.71   20.26    0.00    0.00    0.00   23.71    7.19
 1997 297    94     0     0     5.7   11.0    7.4    3.6    0.29    0.53    0.50    0.50    0.55    0.63    0.02    0.10    0.25    0.23    0.23    0.40   23.98   20.53    0.00    0.00    0.00   23.98    7.61
 1997 298    95     0     0     5.7   11.0    7.4    3.6    0.31    0.43    0.52    0.52    0.55    0.63    0.04    0.10    0.25    0.23    0.22    0.40   24.26   20.81    0.00    0.00    0.00   24.26    7.87
 1997 299    96     0     0     5.7   11.0    7.5    3.6    0.30    0.48    0.52    0.52    0.56    0.63    0.02    0.10    0.25    0.23    0.22    0.40   24.54   21.12    0.00    0.00    0.00   24.54    8.11
 1997 300    97     0     0     5.7   11.1    7.5    3.5    0.33    0.52    0.50    0.52    0.57    0.64    0.04    0.10    0.25    0.22    0.22    0.40   24.82   21.41    0.00    0.00    0.00   24.82    8.34
 1997 301    98     0     0     5.7   11.1    7.6    3.5    0.36    0.44    0.53    0.52    0.58    0.64    0.02    0.10    0.24    0.22    0.21    0.40   25.10   21.73    0.00    0.00    0.00   25.10    8.63
 1997 302    99     0     0     5.7   11.1    7.7    3.5    0.39    0.48    0.52    0.53    0.59    0.64    0.04    0.10    0.24    0.21    0.21    0.40   25.36   22.01    0.00    0.00    0.00   25.36    8.82
 1997 303   100     0     0     5.7   11.2    7.8    3.4    0.48    0.52    0.51    0.53    0.59    0.65    0.02    0.10    0.23    0.21    0.20    0.40   25.62   22.31    0.00    0.00    0.00   25.62    8.98
 1997 304   101     0     0     5.7   11.3    7.9    3.4    0.51    0.46    0.54    0.54    0.60    0.65    0.03    0.09    0.23    0.21    0.20    0.40   25.87   22.59    0.00    0.00    0.00   25.87    9.19
 1997 305   102     0     0     5.7   11.4    8.0    3.4    0.56    0.50    0.54    0.55    0.61    0.65    0.02    0.09    0.22    0.20    0.20    0.40   26.11   22.87    0.00    0.00    0.00   26.11    9.32
 1997 306   103     0     0     5.7   11.5    8.1    3.3    0.56    0.53    0.54    0.56    0.62    0.66    0.02    0.09    0.21    0.20    0.19    0.40   26.33   23.13    0.00    0.00    0.00   26.33    9.46
 1997 307   104     0     0     5.7   11.5    8.2    3.3    0.58    0.51    0.55    0.57    0.63    0.66    0.01    0.08    0.21    0.19    0.19    0.40   26.54   23.39    0.00    0.00    0.00   26.54    9.64
 1997 308   105     0     0     5.7   11.6    8.3    3.3    0.60    0.51    0.56    0.58    0.64    0.67    0.01    0.08    0.20    0.19    0.19    0.40   26.74   23.62    0.00    0.00    0.00   26.74    9.77
 1997 309   106     0     0     5.7   11.7    8.4    3.2    0.63    0.52    0.58    0.59    0.65    0.67    0.01    0.07    0.19    0.18    0.18    0.40   26.92   23.84    0.00    0.00    0.00   26.92    9.87
 1997 310   107     0     0     5.7   11.7    8.6    3.2    0.65    0.53    0.59    0.60    0.66    0.68    0.01    0.07    0.19    0.18    0.18    0.41   27.08   24.04    0.00    0.00    0.00   27.08    9.94
 1997 311   108     0     0     5.7   11.9    8.8    3.1    0.68    0.54    0.60    0.61    0.67    0.69    0.01    0.06    0.18    0.17    0.18    0.41   27.25   24.24    0.00    0.00    0.00   27.25    9.94
 1997 312   109     0     0     5.7   12.1    9.0    3.1    0.70    0.56    0.62    0.63    0.69    0.70    0.01    0.06    0.18    0.17    0.17    0.41   27.41   24.44    0.00    0.00    0.00   27.41    9.94
 1997 313   110     0     0     5.7   12.2    9.2    3.1    0.72    0.57    0.63    0.65    0.71    0.71    0.01    0.06    0.18    0.16    0.17    0.41   27.58   24.64    0.00    0.00    0.00   27.58    9.94
 1997 314   111     0     0     5.7   12.4    9.4    3.0    0.74    0.58    0.65    0.66    0.72    0.72    0.01    0.06    0.17    0.16    0.17    0.41   27.75   24.84    0.00    0.00    0.00   27.75    9.94
 1997 315   112     0     0     5.7   12.6    9.6    3.0    0.77    0.59    0.66    0.68    0.74    0.73    0.01    0.06    0.17    0.15    0.17    0.40   27.91   25.03    0.00    0.00    0.00   27.91    9.94
 1997 316   113     0     0     5.7   12.7    9.7    3.0    0.79    0.60    0.67    0.70    0.76    0.75    0.01    0.05    0.17    0.15    0.16    0.40   28.07   25.22    0.00    0.00    0.00   28.07    9.94
 1997 317   114     0     0     5.7   12.9    9.9    3.0    0.81    0.61    0.68    0.71    0.77    0.76    0.01    0.05    0.16    0.14    0.16    0.40   28.23   25.40    0.00    0.00    0.00   28.23    9.94
 1997 318   115     0     0     5.7   13.0   10.1    2.9    0.83    0.62    0.70    0.73    0.79    0.77    0.01    0.05    0.16    0.14    0.16    0.40   28.39   25.58    0.00    0.00    0.00   28.39    9.94
 1997 319   116     0     0     5.7   13.2   10.3    2.9    0.84    0.63    0.71    0.74    0.80    0.78    0.01    0.05    0.16    0.14    0.16    0.40   28.54   25.75    0.00    0.00    0.00   28.54    9.94
 1997 320   117     0     0     5.7   13.4   10.5    2.9    0.86    0.64    0.72    0.76    0.82    0.79    0.01    0.05    0.16    0.14    0.15    0.40   28.69   25.92    0.00    0.00    0.00   28.69    9.94
 1997 321   118     0     0     5.7   13.5   10.6    2.9    0.88    0.65    0.73    0.77    0.83    0.80    0.01    0.05    0.16    0.13    0.15    0.40   28.85   26.09    0.00    0.00    0.00   28.85    9.94
 1997 322   119     0     0     5.7   13.7   10.8    2.9    0.90    0.66    0.74    0.78    0.85    0.81    0.01    0.05    0.16    0.13    0.15    0.40   29.00   26.26    0.00    0.00    0.00   29.00    9.94
 1997 323   120     0     0     5.7   13.8   11.0    2.9    0.91    0.67    0.75    0.80    0.86    0.83    0.01    0.05    0.15    0.13    0.15    0.40   29.15   26.43    0.00    0.00    0.00   29.15    9.94
 1997 324   121     0     0     5.7   14.0   11.1    2.8    0.93    0.68    0.76    0.81    0.87    0.84    0.01    0.05    0.15    0.13    0.15    0.40   29.30   26.59    0.00    0.00    0.00   29.30    9.94
