*SOIL INORGANIC N BALANCE

*DSSAT Cropping System Model Ver. 4.5.1.023 -Stub         NOV 06, 2014; 23:59:41
                                                                                
*RUN   1        : 97 DATE1 CHINESE          CRGRO045 GHNY9701    1              
 MODEL          : CRGRO045 - Peanut                                             
 EXPERIMENT     : GHNY9701 PN 1997 VARIETY X PLANTING DATE EXPERIMENT           
 DATA PATH      :                                                               
 TREATMENT  1   : 97 DATE1 CHINESE          CRGRO045                            
  


!                                        INITIAL Year/Doy      FINAL Year/Doy
!                                                1997/149            1997/248
!SOIL INORGANIC N BALANCE                       -----------kg N/ha-----------

!   Soil NO3                                         0.14                8.01
!   Soil NH4                                         0.14                3.66
!   Soil Urea                                        0.00                0.00

!   Added to / Removed from Soil:
!   Fertilizer N                                     0.00
!   Mineralized N                                   23.87
!   Leached NO3                                                          2.31
!   N Denitrified                                                        0.01
!   N Uptake From Soil                                                  10.15
!   Ammonia volatilization                                               0.00
!   N immobilized                                                        0.00

!   Total N balance                                 24.14               24.14
!   Balance                                                             0.000

!===============================================================================

*DSSAT Cropping System Model Ver. 4.5.1.023 -Stub         NOV 06, 2014; 23:59:41
                                                                                
*RUN   2        : 97 DATE1 F-MIX            CRGRO045 GHNY9701    2              
 MODEL          : CRGRO045 - Peanut                                             
 EXPERIMENT     : GHNY9701 PN 1997 VARIETY X PLANTING DATE EXPERIMENT           
 DATA PATH      :                                                               
 TREATMENT  2   : 97 DATE1 F-MIX            CRGRO045                            
  


!                                        INITIAL Year/Doy      FINAL Year/Doy
!                                                1997/149            1997/270
!SOIL INORGANIC N BALANCE                       -----------kg N/ha-----------

!   Soil NO3                                         0.14                6.99
!   Soil NH4                                         0.14                4.07
!   Soil Urea                                        0.00                0.00

!   Added to / Removed from Soil:
!   Fertilizer N                                     0.00
!   Mineralized N                                   30.02
!   Leached NO3                                                          5.57
!   N Denitrified                                                        0.07
!   N Uptake From Soil                                                  13.59
!   Ammonia volatilization                                               0.00
!   N immobilized                                                        0.00

!   Total N balance                                 30.30               30.30
!   Balance                                                             0.000

!===============================================================================

*DSSAT Cropping System Model Ver. 4.5.1.023 -Stub         NOV 06, 2014; 23:59:41
                                                                                
*RUN   3        : 97 DATE2 CHINESE          CRGRO045 GHNY9701    3              
 MODEL          : CRGRO045 - Peanut                                             
 EXPERIMENT     : GHNY9701 PN 1997 VARIETY X PLANTING DATE EXPERIMENT           
 DATA PATH      :                                                               
 TREATMENT  3   : 97 DATE2 CHINESE          CRGRO045                            
  


!                                        INITIAL Year/Doy      FINAL Year/Doy
!                                                1997/177            1997/277
!SOIL INORGANIC N BALANCE                       -----------kg N/ha-----------

!   Soil NO3                                         0.14                7.38
!   Soil NH4                                         0.14                3.70
!   Soil Urea                                        0.00                0.00

!   Added to / Removed from Soil:
!   Fertilizer N                                     0.00
!   Mineralized N                                   25.19
!   Leached NO3                                                          6.12
!   N Denitrified                                                        0.00
!   N Uptake From Soil                                                   8.26
!   Ammonia volatilization                                               0.00
!   N immobilized                                                        0.00

!   Total N balance                                 25.46               25.46
!   Balance                                                             0.000

!===============================================================================

*DSSAT Cropping System Model Ver. 4.5.1.023 -Stub         NOV 06, 2014; 23:59:41
                                                                                
*RUN   4        : 97 DATE2 F-MIX            CRGRO045 GHNY9701    4              
 MODEL          : CRGRO045 - Peanut                                             
 EXPERIMENT     : GHNY9701 PN 1997 VARIETY X PLANTING DATE EXPERIMENT           
 DATA PATH      :                                                               
 TREATMENT  4   : 97 DATE2 F-MIX            CRGRO045                            
  


!                                        INITIAL Year/Doy      FINAL Year/Doy
!                                                1997/177            1997/298
!SOIL INORGANIC N BALANCE                       -----------kg N/ha-----------

!   Soil NO3                                         0.14                7.51
!   Soil NH4                                         0.14                3.66
!   Soil Urea                                        0.00                0.00

!   Added to / Removed from Soil:
!   Fertilizer N                                     0.00
!   Mineralized N                                   31.22
!   Leached NO3                                                          7.12
!   N Denitrified                                                        0.00
!   N Uptake From Soil                                                  13.20
!   Ammonia volatilization                                               0.00
!   N immobilized                                                        0.00

!   Total N balance                                 31.49               31.49
!   Balance                                                             0.000

!===============================================================================

*DSSAT Cropping System Model Ver. 4.5.1.023 -Stub         NOV 06, 2014; 23:59:41
                                                                                
*RUN   5        : 97 DATE3 CHINESE          CRGRO045 GHNY9701    5              
 MODEL          : CRGRO045 - Peanut                                             
 EXPERIMENT     : GHNY9701 PN 1997 VARIETY X PLANTING DATE EXPERIMENT           
 DATA PATH      :                                                               
 TREATMENT  5   : 97 DATE3 CHINESE          CRGRO045                            
  


!                                        INITIAL Year/Doy      FINAL Year/Doy
!                                                1997/205            1997/305
!SOIL INORGANIC N BALANCE                       -----------kg N/ha-----------

!   Soil NO3                                         0.14                8.72
!   Soil NH4                                         0.14                3.32
!   Soil Urea                                        0.00                0.00

!   Added to / Removed from Soil:
!   Fertilizer N                                     0.00
!   Mineralized N                                   25.56
!   Leached NO3                                                          5.59
!   N Denitrified                                                        0.00
!   N Uptake From Soil                                                   8.21
!   Ammonia volatilization                                               0.00
!   N immobilized                                                        0.00

!   Total N balance                                 25.84               25.84
!   Balance                                                             0.000

!===============================================================================

*DSSAT Cropping System Model Ver. 4.5.1.023 -Stub         NOV 06, 2014; 23:59:41
                                                                                
*RUN   6        : 97 DATE3 F-MIX            CRGRO045 GHNY9701    6              
 MODEL          : CRGRO045 - Peanut                                             
 EXPERIMENT     : GHNY9701 PN 1997 VARIETY X PLANTING DATE EXPERIMENT           
 DATA PATH      :                                                               
 TREATMENT  6   : 97 DATE3 F-MIX            CRGRO045                            
  


!                                        INITIAL Year/Doy      FINAL Year/Doy
!                                                1997/205            1997/324
!SOIL INORGANIC N BALANCE                       -----------kg N/ha-----------

!   Soil NO3                                         0.14               11.10
!   Soil NH4                                         0.14                2.84
!   Soil Urea                                        0.00                0.00

!   Added to / Removed from Soil:
!   Fertilizer N                                     0.00
!   Mineralized N                                   29.05
!   Leached NO3                                                          5.54
!   N Denitrified                                                        0.00
!   N Uptake From Soil                                                   9.83
!   Ammonia volatilization                                               0.00
!   N immobilized                                                        0.00

!   Total N balance                                 29.32               29.32
!   Balance                                                             0.000
