*SOIL WATER DAILY OUTPUT FILE

*DSSAT Cropping System Model Ver. 4.5.1.023 -Stub         OCT 13, 2014; 10:48:17
                                                                                
*RUN   1        : 97 DATE1 CHINESE          CRGRO045 GHNY9701    1              
 MODEL          : CRGRO045 - Peanut                                             
 EXPERIMENT     : GHNY9701 PN able [sltx] with oversized content [1 SALO], only 
 DATA PATH      :                                                               
 TREATMENT  1   : 97 DATE1 CHINESE          CRGRO045                            
  
!                                                                                                 Soil water content (mm3/mm3) by soil depth (cm):
!                                                                                                 0-5    5-15   15-30   30-45   45-60   60-90
@YEAR DOY   DAS  SWTD  SWXD   ROFC   DRNC   PREC  IR#C  IRRC  DTWT    MWTD  TDFD  TDFC   ROFD    SW1D    SW2D    SW3D    SW4D    SW5D    SW6D    
 1997 148     0   157    65      0      0      0     0     0     0    0.19   0.0   0.0   0.00   0.108   0.108   0.108   0.227   0.213   0.196
 1997 149     1   156    63      0      0      0     0     0    45    0.15   0.0   0.0   0.00   0.107   0.107   0.107   0.225   0.208   0.196
 1997 150     2   154    62      0      0      0     0     0    90    0.11   0.0   0.0   0.00   0.106   0.106   0.106   0.223   0.206   0.194
 1997 151     3   153    60      0      0      0     0     0    90    0.09   0.0   0.0   0.00   0.105   0.105   0.105   0.221   0.204   0.192
 1997 152     4   153    60      0      0      0     0     0    90    0.07   0.0   0.0   0.00   0.098   0.105   0.105   0.221   0.204   0.192
 1997 153     5   152    60      0      0      0     0     0    90    0.05   0.0   0.0   0.00   0.092   0.104   0.105   0.220   0.204   0.192
 1997 154     6   152    59      0      0      0     0     0    90    0.04   0.0   0.0   0.00   0.086   0.104   0.105   0.220   0.204   0.192
 1997 155     7   158    65      0      0      7     0     0    90    0.38   0.0   0.0   0.00   0.208   0.103   0.105   0.220   0.204   0.192
 1997 156     8   157    64      0      0      7     0     0    90    0.29   0.0   0.0   0.00   0.192   0.103   0.105   0.220   0.204   0.192
 1997 157     9   157    65      0      0      9     0     0    90    0.40   0.0   0.0   0.00   0.202   0.102   0.104   0.220   0.204   0.192
 1997 158    10   156    64      0      0      9     0     0    90    0.31   0.0   0.0   0.00   0.186   0.101   0.104   0.220   0.204   0.192
 1997 159    11   155    63      0      0      9     0     0    90    0.24   0.0   0.0   0.00   0.171   0.101   0.104   0.220   0.204   0.192
 1997 160    12   155    62      0      0      9     0     0    90    0.18   0.0   0.0   0.00   0.157   0.100   0.104   0.220   0.204   0.192
 1997 161    13   154    61      0      0      9     0     0    90    0.14   0.0   0.0   0.00   0.144   0.099   0.103   0.220   0.204   0.192
 1997 162    14   159    67      0      0     15     0     0    90    0.39   0.0   0.0   0.00   0.248   0.101   0.103   0.220   0.204   0.192
 1997 163    15   158    65      0      0     15     0     0    90    0.30   0.0   0.0   0.00   0.226   0.100   0.103   0.220   0.204   0.192
 1997 164    16   195   103      4      0     59     0     0    90    0.40   0.0   0.0   3.90   0.305   0.301   0.195   0.218   0.202   0.191
 1997 165    17   192   100      4      0     59     0     0    90    0.36   0.0   0.0   0.00   0.271   0.269   0.214   0.215   0.201   0.190
 1997 166    18   189    96      4      0     59     0     0    90    0.27   0.0   0.0   0.00   0.246   0.245   0.223   0.213   0.199   0.189
 1997 167    19   201   109      4      0     76     0     0    90    0.40   0.0   0.0   0.00   0.299   0.297   0.246   0.225   0.198   0.188
 1997 168    20   196   104      4      0     76     0     0    90    0.31   0.0   0.0   0.00   0.254   0.258   0.233   0.226   0.203   0.196
 1997 169    21   191    99      4      0     76     0     0    90    0.24   0.0   0.0   0.00   0.224   0.233   0.224   0.225   0.202   0.197
 1997 170    22   208   116      4      0     97     0     0    90    0.40   0.0   0.0   0.00   0.300   0.297   0.255   0.237   0.206   0.196
 1997 171    23   198   106      4      5     97     0     0    90    0.30   0.0   0.0   0.00   0.252   0.256   0.238   0.230   0.203   0.198
 1997 172    24   192    99      4      6     97     0     0    90    0.23   0.0   0.0   0.00   0.222   0.232   0.227   0.226   0.202   0.198
 1997 173    25   199   107      4      6    106     0     0    90    0.40   0.0   0.0   0.00   0.311   0.250   0.232   0.229   0.201   0.197
 1997 174    26   201   108      4      6    110     0     0    90    0.34   0.0   0.0   0.00   0.308   0.256   0.237   0.232   0.203   0.197
 1997 175    27   196   104      4      7    110     0     0    90    0.26   0.0   0.0   0.00   0.270   0.238   0.229   0.230   0.204   0.199
 1997 176    28   192   100      4      7    110     0     0    90    0.20   0.0   0.0   0.00   0.243   0.224   0.224   0.226   0.203   0.199
 1997 177    29   190    98      4      7    110     0     0    90    0.15   0.0   0.0   0.00   0.220   0.220   0.222   0.226   0.203   0.199
 1997 178    30   188    96      4      7    110     0     0    90    0.12   0.0   0.0   0.00   0.199   0.216   0.219   0.225   0.202   0.199
 1997 179    31   219   127      6      7    147     0     0    90    0.39   0.0   0.0   2.43   0.306   0.298   0.291   0.255   0.213   0.201
 1997 180    32   204   111      6     17    147     0     0    90    0.30   0.0   0.0   0.00   0.256   0.256   0.257   0.240   0.207   0.199
 1997 181    33   209   116      6     17    156     0     0    90    0.40   0.0   0.0   0.00   0.301   0.267   0.253   0.245   0.212   0.201
 1997 182    34   198   106      6     22    156     0     0    90    0.31   0.0   0.0   0.00   0.258   0.239   0.236   0.235   0.207   0.200
 1997 183    35   195   103      6     24    156     0     0    90    0.24   0.0   0.0   0.00   0.247   0.229   0.230   0.231   0.206   0.199
 1997 184    36   193   100      6     24    156     0     0    90    0.18   0.0   0.0   0.00   0.236   0.224   0.227   0.229   0.204   0.199
 1997 185    37   191    98      6     24    156     0     0    90    0.14   0.0   0.0   0.00   0.215   0.221   0.225   0.228   0.204   0.199
 1997 186    38   190    97      6     24    157     0     0    90    0.39   0.0   0.0   0.00   0.219   0.215   0.221   0.227   0.203   0.199
 1997 187    39   187    95      6     24    157     0     0    90    0.30   0.0   0.0   0.00   0.197   0.210   0.218   0.225   0.202   0.198
 1997 188    40   185    92      6     24    157     0     0    90    0.23   0.0   0.0   0.00   0.177   0.204   0.215   0.224   0.201   0.198
 1997 189    41   181    89      6     24    157     0     0    90    0.18   0.0   0.0   0.00   0.157   0.196   0.210   0.222   0.200   0.198
 1997 190    42   179    86      6     24    157     0     0    90    0.14   0.0   0.0   0.00   0.139   0.189   0.205   0.219   0.198   0.198
 1997 191    43   197   105      6     24    179     0     0    90    0.39   0.0   0.0   0.00   0.313   0.271   0.223   0.217   0.197   0.197
 1997 192    44   195   102      6     24    179     0     0    90    0.30   0.0   0.0   0.00   0.277   0.246   0.224   0.227   0.198   0.196
 1997 193    45   192    99      6     24    181     0     0    90    0.40   0.0   0.0   0.00   0.269   0.232   0.223   0.224   0.195   0.195
 1997 194    46   186    94      6     24    181     0     0    90    0.31   0.0   0.0   0.00   0.240   0.217   0.217   0.220   0.192   0.194
 1997 195    47   208   115      7     24    208     0     0    90    0.41   0.0   0.0   0.41   0.302   0.295   0.266   0.238   0.198   0.193
 1997 196    48   243   151     19     28    262     0     0    85    0.36   0.0   0.0  12.07   0.312   0.300   0.291   0.295   0.286   0.222
 1997 197    49   237   144     19     34    263     0     0    84    0.40   0.0   0.0   0.00   0.295   0.274   0.277   0.288   0.277   0.228
 1997 198    50   216   124     19     50    263     0     0    87    0.30   0.0   0.0   0.00   0.264   0.246   0.251   0.261   0.246   0.216
 1997 199    51   204   111     19     59    263     0     0    88    0.23   0.0   0.0   0.00   0.246   0.229   0.236   0.245   0.227   0.209
 1997 200    52   196   103     19     63    263     0     0    89    0.18   0.0   0.0   0.00   0.229   0.218   0.226   0.235   0.216   0.204
 1997 201    53   193   100     19     64    263     0     0    89    0.27   0.0   0.0   0.00   0.225   0.211   0.221   0.230   0.211   0.203
 1997 202    54   191    99     19     64    264     0     0    90    0.37   0.0   0.0   0.00   0.230   0.207   0.218   0.229   0.208   0.202
 1997 203    55   186    93     19     64    264     0     0    90    0.28   0.0   0.0   0.00   0.208   0.193   0.209   0.224   0.204   0.201
 1997 204    56   186    94     19     64    269     0     0    90    0.41   0.0   0.0   0.00   0.272   0.192   0.202   0.220   0.202   0.200
 1997 205    57   184    91     19     64    270     0     0    90    0.36   0.0   0.0   0.00   0.268   0.190   0.196   0.217   0.199   0.199
 1997 206    58   179    87     19     64    270     0     0    90    0.27   0.0   0.0   0.00   0.243   0.180   0.188   0.212   0.196   0.198
 1997 207    59   174    82     19     64    270     0     0    90    0.21   0.0   0.0   0.00   0.212   0.168   0.180   0.208   0.194   0.198
 1997 208    60   170    77     19     64    270     0     0    90    0.16   0.0   0.0   0.00   0.186   0.158   0.173   0.205   0.191   0.197
 1997 209    61   165    72     19     64    270     0     0    90    0.12   0.0   0.0   0.00   0.160   0.145   0.165   0.201   0.189   0.197
 1997 210    62   168    75     19     64    277     0     0    90    0.41   0.0   0.0   0.00   0.251   0.144   0.161   0.199   0.187   0.196
 1997 211    63   181    89     19     64    292     0     0    90    0.33   0.0   0.0   0.00   0.313   0.243   0.167   0.197   0.186   0.196
 1997 212    64   179    87     19     64    292     0     0    90    0.25   0.0   0.0   0.00   0.283   0.232   0.175   0.196   0.185   0.196
 1997 213    65   178    85     19     64    294     0     0    90    0.42   0.0   0.0   0.00   0.276   0.228   0.175   0.194   0.183   0.195
 1997 214    66   173    80     19     64    294     0     0    90    0.32   0.0   0.0   0.00   0.248   0.215   0.169   0.189   0.180   0.194
 1997 215    67   168    76     19     64    294     0     0    90    0.24   0.0   0.0   0.00   0.218   0.204   0.162   0.186   0.178   0.194
 1997 216    68   166    73     19     64    294     0     0    90    0.18   0.0   0.0   0.00   0.198   0.198   0.158   0.184   0.177   0.193
 1997 217    69   207   115     28     64    348     0     0    90    0.42   0.0   0.0   8.74   0.310   0.297   0.289   0.228   0.177   0.193
 1997 218    70   205   112     28     65    348     0     0    90    0.34   0.0   0.0   0.00   0.282   0.265   0.262   0.227   0.204   0.200
 1997 219    71   198   105     28     69    348     0     0    90    0.25   0.0   0.0   0.00   0.261   0.242   0.243   0.226   0.203   0.199
 1997 220    72   192   100     28     70    348     0     0    90    0.19   0.0   0.0   0.00   0.240   0.222   0.228   0.224   0.202   0.199
 1997 221    73   189    96     28     70    348     0     0    90    0.14   0.0   0.0   0.00   0.227   0.214   0.222   0.221   0.200   0.198
 1997 222    74   184    91     28     70    348     0     0    90    0.11   0.0   0.0   0.00   0.198   0.201   0.214   0.217   0.197   0.198
 1997 223    75   179    86     28     70    348     0     0    90    0.08   0.0   0.0   0.00   0.171   0.189   0.206   0.213   0.194   0.197
 1997 224    76   175    82     28     70    348     0     0    90    0.06   0.0   0.0   0.00   0.149   0.179   0.199   0.210   0.192   0.197
 1997 225    77   170    78     28     70    348     0     0    90    0.05   0.0   0.0   0.00   0.130   0.168   0.192   0.207   0.190   0.196
 1997 226    78   167    74     28     70    348     0     0    90    0.04   0.0   0.0   0.00   0.119   0.156   0.185   0.203   0.187   0.196
 1997 227    79   169    76     28     70    352     0     0    90    0.42   0.0   0.0   0.00   0.197   0.151   0.181   0.202   0.186   0.196
 1997 228    80   165    72     28     70    352     0     0    90    0.31   0.0   0.0   0.00   0.172   0.140   0.174   0.198   0.184   0.195
 1997 229    81   161    69     28     70    352     0     0    90    0.24   0.0   0.0   0.00   0.152   0.133   0.169   0.196   0.182   0.195
 1997 230    82   207   114     38     70    412     0     0    90    0.44   0.0   0.0  10.11   0.306   0.295   0.280   0.229   0.182   0.194
 1997 231    83   200   108     38     71    412     0     0    90    0.33   0.0   0.0   0.00   0.268   0.255   0.251   0.225   0.202   0.199
 1997 232    84   194   102     38     73    412     0     0    90    0.25   0.0   0.0   0.00   0.247   0.232   0.234   0.225   0.202   0.199
 1997 233    85   207   114     38     73    432     0     0    90    0.44   0.0   0.0   0.00   0.297   0.289   0.252   0.235   0.204   0.199
 1997 234    86   199   106     38     77    432     0     0    90    0.33   0.0   0.0   0.00   0.267   0.254   0.236   0.229   0.203   0.199
 1997 235    87   196   103     38     78    432     0     0    90    0.25   0.0   0.0   0.00   0.257   0.239   0.230   0.228   0.204   0.200
 1997 236    88   192   100     38     78    432     0     0    90    0.18   0.0   0.0   0.00   0.243   0.224   0.223   0.226   0.203   0.199
 1997 237    89   199   107     38     78    445     0     0    90    0.44   0.0   0.0   0.00   0.301   0.264   0.230   0.227   0.201   0.198
 1997 238    90   195   102     38     79    445     0     0    90    0.33   0.0   0.0   0.00   0.269   0.240   0.223   0.226   0.203   0.199
 1997 239    91   198   106     38     79    453     0     0    90    0.46   0.0   0.0   0.00   0.305   0.253   0.228   0.227   0.200   0.198
 1997 240    92   196   103     38     80    453     0     0    90    0.34   0.0   0.0   0.00   0.277   0.237   0.224   0.227   0.204   0.200
 1997 241    93   202   110     38     80    465     0     0    90    0.46   0.0   0.0   0.00   0.300   0.279   0.234   0.229   0.203   0.198
 1997 242    94   195   102     38     82    465     0     0    90    0.34   0.0   0.0   0.00   0.264   0.245   0.223   0.225   0.202   0.199
 1997 243    95   190    97     38     82    465     0     0    90    0.25   0.0   0.0   0.00   0.241   0.224   0.219   0.221   0.199   0.198
 1997 244    96   185    93     38     82    465     0     0    90    0.19   0.0   0.0   0.00   0.212   0.213   0.212   0.217   0.196   0.197
 1997 245    97   181    88     38     82    465     0     0    90    0.14   0.0   0.0   0.00   0.186   0.203   0.205   0.214   0.194   0.197
 1997 246    98   179    86     38     82    466     0     0    90    0.32   0.0   0.0   0.00   0.177   0.197   0.202   0.212   0.193   0.197
 1997 247    99   181    89     38     82    472     0     0    90    0.39   0.0   0.0   0.00   0.256   0.196   0.198   0.210   0.192   0.196
 1997 248   100   197   105     38     82    492     0     0    90    0.42   0.0   0.0   0.00   0.304   0.294   0.226   0.210   0.189   0.196

*DSSAT Cropping System Model Ver. 4.5.1.023 -Stub         OCT 13, 2014; 10:48:17
                                                                                
*RUN   2        : 97 DATE1 F-MIX            CRGRO045 GHNY9701    2              
 MODEL          : CRGRO045 - Peanut                                             
 EXPERIMENT     : GHNY9701 PN able [sltx] with oversized content [1 SALO], only 
 DATA PATH      :                                                               
 TREATMENT  2   : 97 DATE1 F-MIX            CRGRO045                            
  
!                                                                                                 Soil water content (mm3/mm3) by soil depth (cm):
!                                                                                                 0-5    5-15   15-30   30-45   45-60   60-90
@YEAR DOY   DAS  SWTD  SWXD   ROFC   DRNC   PREC  IR#C  IRRC  DTWT    MWTD  TDFD  TDFC   ROFD    SW1D    SW2D    SW3D    SW4D    SW5D    SW6D    
 1997 148     0   157    65      0      0      0     0     0     0    0.19   0.0   0.0   0.00   0.108   0.108   0.108   0.227   0.213   0.196
 1997 149     1   156    63      0      0      0     0     0    45    0.15   0.0   0.0   0.00   0.107   0.107   0.107   0.225   0.208   0.196
 1997 150     2   154    62      0      0      0     0     0    90    0.11   0.0   0.0   0.00   0.106   0.106   0.106   0.223   0.206   0.194
 1997 151     3   153    60      0      0      0     0     0    90    0.09   0.0   0.0   0.00   0.105   0.105   0.105   0.221   0.204   0.192
 1997 152     4   153    60      0      0      0     0     0    90    0.07   0.0   0.0   0.00   0.098   0.105   0.105   0.221   0.204   0.192
 1997 153     5   152    60      0      0      0     0     0    90    0.05   0.0   0.0   0.00   0.092   0.104   0.105   0.220   0.204   0.192
 1997 154     6   152    59      0      0      0     0     0    90    0.04   0.0   0.0   0.00   0.086   0.104   0.105   0.220   0.204   0.192
 1997 155     7   158    65      0      0      7     0     0    90    0.38   0.0   0.0   0.00   0.208   0.103   0.105   0.220   0.204   0.192
 1997 156     8   157    64      0      0      7     0     0    90    0.29   0.0   0.0   0.00   0.192   0.103   0.105   0.220   0.204   0.192
 1997 157     9   157    65      0      0      9     0     0    90    0.40   0.0   0.0   0.00   0.202   0.102   0.104   0.220   0.204   0.192
 1997 158    10   156    64      0      0      9     0     0    90    0.31   0.0   0.0   0.00   0.186   0.102   0.104   0.220   0.204   0.192
 1997 159    11   156    63      0      0      9     0     0    90    0.24   0.0   0.0   0.00   0.171   0.101   0.104   0.220   0.204   0.192
 1997 160    12   155    62      0      0      9     0     0    90    0.18   0.0   0.0   0.00   0.157   0.100   0.104   0.220   0.204   0.192
 1997 161    13   154    61      0      0      9     0     0    90    0.14   0.0   0.0   0.00   0.145   0.100   0.104   0.220   0.204   0.192
 1997 162    14   159    67      0      0     15     0     0    90    0.39   0.0   0.0   0.00   0.249   0.101   0.103   0.220   0.204   0.192
 1997 163    15   158    66      0      0     15     0     0    90    0.30   0.0   0.0   0.00   0.227   0.100   0.103   0.220   0.204   0.192
 1997 164    16   195   103      4      0     59     0     0    90    0.40   0.0   0.0   3.91   0.305   0.301   0.196   0.218   0.202   0.191
 1997 165    17   192   100      4      0     59     0     0    90    0.36   0.0   0.0   0.00   0.271   0.269   0.215   0.215   0.201   0.190
 1997 166    18   189    96      4      0     59     0     0    90    0.27   0.0   0.0   0.00   0.246   0.245   0.224   0.213   0.199   0.189
 1997 167    19   201   109      4      0     76     0     0    90    0.40   0.0   0.0   0.00   0.299   0.297   0.246   0.226   0.198   0.188
 1997 168    20   197   104      4      0     76     0     0    90    0.31   0.0   0.0   0.00   0.254   0.258   0.233   0.226   0.203   0.197
 1997 169    21   191    99      4      0     76     0     0    90    0.24   0.0   0.0   0.00   0.224   0.233   0.224   0.225   0.202   0.197
 1997 170    22   208   116      4      0     97     0     0    90    0.40   0.0   0.0   0.00   0.300   0.297   0.255   0.237   0.206   0.197
 1997 171    23   198   106      4      5     97     0     0    90    0.30   0.0   0.0   0.00   0.252   0.256   0.238   0.230   0.203   0.198
 1997 172    24   192    99      4      6     97     0     0    90    0.23   0.0   0.0   0.00   0.222   0.232   0.227   0.226   0.202   0.198
 1997 173    25   199   107      4      6    106     0     0    90    0.40   0.0   0.0   0.00   0.311   0.250   0.232   0.229   0.201   0.197
 1997 174    26   201   108      4      6    110     0     0    90    0.34   0.0   0.0   0.00   0.308   0.256   0.237   0.232   0.203   0.197
 1997 175    27   196   104      4      7    110     0     0    90    0.26   0.0   0.0   0.00   0.270   0.238   0.230   0.230   0.204   0.199
 1997 176    28   192   100      4      8    110     0     0    90    0.20   0.0   0.0   0.00   0.242   0.225   0.224   0.227   0.203   0.199
 1997 177    29   190    98      4      8    110     0     0    90    0.15   0.0   0.0   0.00   0.220   0.220   0.222   0.226   0.203   0.199
 1997 178    30   188    96      4      8    110     0     0    90    0.12   0.0   0.0   0.00   0.199   0.216   0.220   0.225   0.202   0.199
 1997 179    31   219   127      6      8    147     0     0    90    0.39   0.0   0.0   2.43   0.306   0.298   0.291   0.255   0.213   0.201
 1997 180    32   204   112      6     17    147     0     0    90    0.30   0.0   0.0   0.00   0.256   0.256   0.257   0.241   0.207   0.199
 1997 181    33   209   116      6     17    156     0     0    90    0.40   0.0   0.0   0.00   0.301   0.267   0.253   0.245   0.212   0.201
 1997 182    34   199   106      6     23    156     0     0    90    0.31   0.0   0.0   0.00   0.258   0.239   0.236   0.235   0.207   0.200
 1997 183    35   195   103      6     24    156     0     0    90    0.24   0.0   0.0   0.00   0.247   0.229   0.230   0.231   0.206   0.199
 1997 184    36   193   100      6     24    156     0     0    90    0.18   0.0   0.0   0.00   0.236   0.224   0.227   0.229   0.205   0.199
 1997 185    37   191    98      6     24    156     0     0    90    0.14   0.0   0.0   0.00   0.225   0.218   0.223   0.227   0.203   0.198
 1997 186    38   189    97      6     24    157     0     0    90    0.39   0.0   0.0   0.00   0.228   0.213   0.220   0.226   0.203   0.198
 1997 187    39   187    94      6     24    157     0     0    90    0.30   0.0   0.0   0.00   0.205   0.207   0.217   0.225   0.202   0.198
 1997 188    40   184    92      6     24    157     0     0    90    0.23   0.0   0.0   0.00   0.184   0.201   0.213   0.223   0.201   0.198
 1997 189    41   181    89      6     24    157     0     0    90    0.18   0.0   0.0   0.00   0.163   0.193   0.208   0.221   0.200   0.198
 1997 190    42   178    86      6     24    157     0     0    90    0.14   0.0   0.0   0.00   0.145   0.186   0.203   0.219   0.198   0.197
 1997 191    43   197   105      6     24    179     0     0    90    0.39   0.0   0.0   0.00   0.312   0.271   0.222   0.217   0.197   0.197
 1997 192    44   194   102      6     24    179     0     0    90    0.30   0.0   0.0   0.00   0.277   0.246   0.224   0.227   0.196   0.196
 1997 193    45   191    99      6     24    181     0     0    90    0.40   0.0   0.0   0.00   0.268   0.232   0.223   0.224   0.193   0.195
 1997 194    46   186    93      6     24    181     0     0    90    0.31   0.0   0.0   0.00   0.240   0.217   0.217   0.220   0.191   0.194
 1997 195    47   207   115      7     24    208     0     0    90    0.41   0.0   0.0   0.41   0.302   0.294   0.266   0.238   0.196   0.193
 1997 196    48   243   150     19     28    262     0     0    86    0.36   0.0   0.0  12.07   0.312   0.300   0.291   0.295   0.286   0.222
 1997 197    49   236   144     19     34    263     0     0    84    0.40   0.0   0.0   0.00   0.295   0.274   0.277   0.288   0.277   0.227
 1997 198    50   216   124     19     50    263     0     0    87    0.30   0.0   0.0   0.00   0.265   0.246   0.251   0.261   0.246   0.215
 1997 199    51   204   111     19     59    263     0     0    88    0.23   0.0   0.0   0.00   0.246   0.229   0.236   0.245   0.227   0.208
 1997 200    52   196   103     19     63    263     0     0    89    0.18   0.0   0.0   0.00   0.230   0.218   0.226   0.235   0.216   0.204
 1997 201    53   193   100     19     64    263     0     0    89    0.28   0.0   0.0   0.00   0.226   0.211   0.221   0.230   0.211   0.203
 1997 202    54   191    99     19     64    264     0     0    90    0.37   0.0   0.0   0.00   0.231   0.207   0.218   0.229   0.208   0.202
 1997 203    55   186    93     19     64    264     0     0    90    0.28   0.0   0.0   0.00   0.209   0.193   0.209   0.224   0.204   0.201
 1997 204    56   186    94     19     64    269     0     0    90    0.41   0.0   0.0   0.00   0.273   0.192   0.202   0.220   0.202   0.200
 1997 205    57   184    91     19     64    270     0     0    90    0.36   0.0   0.0   0.00   0.269   0.190   0.195   0.217   0.200   0.199
 1997 206    58   179    87     19     64    270     0     0    90    0.27   0.0   0.0   0.00   0.244   0.180   0.187   0.212   0.196   0.198
 1997 207    59   174    82     19     64    270     0     0    90    0.21   0.0   0.0   0.00   0.214   0.168   0.179   0.209   0.194   0.198
 1997 208    60   170    77     19     64    270     0     0    90    0.16   0.0   0.0   0.00   0.187   0.157   0.172   0.205   0.192   0.197
 1997 209    61   164    72     19     64    270     0     0    90    0.12   0.0   0.0   0.00   0.160   0.144   0.163   0.201   0.189   0.197
 1997 210    62   167    75     19     64    277     0     0    90    0.41   0.0   0.0   0.00   0.253   0.141   0.159   0.199   0.187   0.197
 1997 211    63   181    88     19     64    292     0     0    90    0.34   0.0   0.0   0.00   0.313   0.242   0.164   0.197   0.186   0.196
 1997 212    64   179    86     19     64    292     0     0    90    0.27   0.0   0.0   0.00   0.284   0.231   0.173   0.195   0.185   0.196
 1997 213    65   178    85     19     64    294     0     0    90    0.41   0.0   0.0   0.00   0.278   0.228   0.172   0.193   0.183   0.195
 1997 214    66   172    80     19     64    294     0     0    90    0.31   0.0   0.0   0.00   0.250   0.215   0.166   0.189   0.180   0.194
 1997 215    67   168    75     19     64    294     0     0    90    0.23   0.0   0.0   0.00   0.222   0.203   0.159   0.185   0.178   0.194
 1997 216    68   165    73     19     64    294     0     0    90    0.18   0.0   0.0   0.00   0.205   0.197   0.154   0.183   0.177   0.194
 1997 217    69   207   114     28     64    348     0     0    90    0.42   0.0   0.0   8.79   0.311   0.297   0.289   0.226   0.176   0.193
 1997 218    70   205   112     28     65    348     0     0    90    0.36   0.0   0.0   0.00   0.283   0.264   0.262   0.227   0.204   0.200
 1997 219    71   198   105     28     68    348     0     0    90    0.27   0.0   0.0   0.00   0.262   0.242   0.243   0.226   0.203   0.199
 1997 220    72   192   100     28     69    348     0     0    90    0.21   0.0   0.0   0.00   0.242   0.222   0.228   0.224   0.202   0.199
 1997 221    73   189    96     28     69    348     0     0    90    0.15   0.0   0.0   0.00   0.223   0.214   0.222   0.222   0.200   0.199
 1997 222    74   184    91     28     69    348     0     0    90    0.12   0.0   0.0   0.00   0.194   0.201   0.214   0.218   0.197   0.198
 1997 223    75   179    86     28     69    348     0     0    90    0.09   0.0   0.0   0.00   0.167   0.189   0.206   0.214   0.194   0.198
 1997 224    76   175    82     28     69    348     0     0    90    0.07   0.0   0.0   0.00   0.145   0.179   0.199   0.211   0.192   0.197
 1997 225    77   170    78     28     69    348     0     0    90    0.05   0.0   0.0   0.00   0.129   0.167   0.192   0.207   0.190   0.197
 1997 226    78   166    74     28     69    348     0     0    90    0.04   0.0   0.0   0.00   0.118   0.155   0.183   0.203   0.187   0.196
 1997 227    79   169    76     28     69    352     0     0    90    0.42   0.0   0.0   0.00   0.199   0.149   0.180   0.201   0.186   0.196
 1997 228    80   164    72     28     69    352     0     0    90    0.32   0.0   0.0   0.00   0.176   0.138   0.172   0.198   0.183   0.195
 1997 229    81   161    69     28     69    352     0     0    90    0.24   0.0   0.0   0.00   0.159   0.131   0.167   0.195   0.181   0.195
 1997 230    82   206   114     38     69    412     0     0    90    0.45   0.0   0.0  10.11   0.299   0.295   0.280   0.229   0.181   0.195
 1997 231    83   200   108     38     71    412     0     0    90    0.33   0.0   0.0   0.00   0.266   0.255   0.250   0.225   0.202   0.199
 1997 232    84   194   102     38     72    412     0     0    90    0.25   0.0   0.0   0.00   0.247   0.232   0.233   0.225   0.202   0.199
 1997 233    85   207   114     38     72    432     0     0    90    0.45   0.0   0.0   0.00   0.300   0.289   0.251   0.234   0.204   0.199
 1997 234    86   199   106     38     77    432     0     0    90    0.34   0.0   0.0   0.00   0.270   0.254   0.235   0.229   0.203   0.199
 1997 235    87   196   103     38     78    432     0     0    90    0.29   0.0   0.0   0.00   0.260   0.239   0.229   0.228   0.204   0.200
 1997 236    88   192   100     38     78    432     0     0    90    0.21   0.0   0.0   0.00   0.247   0.224   0.222   0.226   0.203   0.199
 1997 237    89   200   107     38     78    445     0     0    90    0.46   0.0   0.0   0.00   0.304   0.265   0.229   0.226   0.201   0.198
 1997 238    90   195   102     38     79    445     0     0    90    0.34   0.0   0.0   0.00   0.273   0.240   0.222   0.226   0.203   0.199
 1997 239    91   198   106     38     79    453     0     0    90    0.47   0.0   0.0   0.00   0.308   0.254   0.227   0.226   0.200   0.199
 1997 240    92   196   103     38     79    453     0     0    90    0.40   0.0   0.0   0.00   0.280   0.237   0.224   0.227   0.204   0.200
 1997 241    93   203   110     38     79    465     0     0    90    0.41   0.0   0.0   0.00   0.304   0.280   0.234   0.229   0.203   0.199
 1997 242    94   195   102     38     82    465     0     0    90    0.30   0.0   0.0   0.00   0.268   0.245   0.222   0.224   0.202   0.199
 1997 243    95   190    97     38     82    465     0     0    90    0.22   0.0   0.0   0.00   0.246   0.224   0.218   0.220   0.198   0.198
 1997 244    96   185    93     38     82    465     0     0    90    0.16   0.0   0.0   0.00   0.222   0.212   0.211   0.217   0.196   0.198
 1997 245    97   181    88     38     82    465     0     0    90    0.12   0.0   0.0   0.00   0.200   0.202   0.204   0.213   0.193   0.197
 1997 246    98   179    86     38     82    466     0     0    90    0.31   0.0   0.0   0.00   0.195   0.195   0.200   0.211   0.192   0.197
 1997 247    99   181    89     38     82    472     0     0    90    0.41   0.0   0.0   0.00   0.273   0.197   0.195   0.209   0.190   0.197
 1997 248   100   197   105     38     82    492     0     0    90    0.43   0.0   0.0   0.00   0.307   0.294   0.228   0.210   0.188   0.196
 1997 249   101   194   102     38     82    492     0     0    90    0.33   0.0   0.0   0.00   0.276   0.258   0.222   0.226   0.191   0.195
 1997 250   102   190    98     38     82    492     0     0    90    0.24   0.0   0.0   0.00   0.255   0.235   0.221   0.225   0.190   0.195
 1997 251   103   211   118     38     82    519     0     0    90    0.49   0.0   0.0   0.34   0.303   0.291   0.277   0.245   0.201   0.194
 1997 252   104   225   133     38     82    537     0     0    90    0.43   0.0   0.0   0.00   0.313   0.298   0.290   0.285   0.224   0.200
 1997 253   105   224   132     38     83    540     0     0    89    0.45   0.0   0.0   0.00   0.310   0.278   0.275   0.281   0.236   0.206
 1997 254   106   209   116     38     95    540     0     0    89    0.33   0.0   0.0   0.00   0.277   0.248   0.250   0.257   0.221   0.203
 1997 255   107   198   106     38    100    540     0     0    90    0.24   0.0   0.0   0.00   0.253   0.227   0.232   0.241   0.212   0.201
 1997 256   108   227   135     41    102    579     0     0    89    0.50   0.0   0.0   2.96   0.304   0.292   0.285   0.291   0.232   0.206
 1997 257   109   211   118     41    115    579     0     0    89    0.37   0.0   0.0   0.00   0.273   0.256   0.256   0.263   0.219   0.203
 1997 258   110   212   119     41    116    587     0     0    89    0.50   0.0   0.0   0.00   0.305   0.261   0.248   0.256   0.223   0.205
 1997 259   111   201   108     41    123    587     0     0    90    0.36   0.0   0.0   0.00   0.271   0.235   0.232   0.241   0.213   0.202
 1997 260   112   212   119     41    124    604     0     0    89    0.52   0.0   0.0   0.00   0.305   0.293   0.249   0.244   0.214   0.203
 1997 261   113   224   132     41    125    620     0     0    89    0.51   0.0   0.0   0.00   0.316   0.301   0.292   0.264   0.224   0.206
 1997 262   114   209   116     41    137    620     0     0    89    0.37   0.0   0.0   0.00   0.280   0.261   0.259   0.247   0.214   0.203
 1997 263   115   200   108     41    142    620     0     0    90    0.27   0.0   0.0   0.00   0.259   0.238   0.240   0.236   0.208   0.202
 1997 264   116   192   100     41    144    620     0     0    90    0.19   0.0   0.0   0.00   0.239   0.217   0.224   0.228   0.203   0.201
 1997 265   117   211   118     41    144    644     0     0    90    0.51   0.0   0.0   0.01   0.306   0.293   0.259   0.240   0.207   0.202
 1997 266   118   203   111     41    150    644     0     0    90    0.44   0.0   0.0   0.00   0.281   0.262   0.243   0.234   0.206   0.201
 1997 267   119   203   111     41    150    649     0     0    90    0.42   0.0   0.0   0.00   0.306   0.252   0.239   0.235   0.207   0.202
 1997 268   120   198   106     41    153    649     0     0    90    0.35   0.0   0.0   0.00   0.280   0.237   0.231   0.231   0.205   0.202
 1997 269   121   194   101     41    154    649     0     0    90    0.25   0.0   0.0   0.00   0.258   0.222   0.224   0.227   0.203   0.201
 1997 270   122   235   143     57    157    717     0     0    87    0.52   0.0   0.0  16.16   0.301   0.290   0.284   0.291   0.273   0.214

*DSSAT Cropping System Model Ver. 4.5.1.023 -Stub         OCT 13, 2014; 10:48:17
                                                                                
*RUN   3        : 97 DATE2 CHINESE          CRGRO045 GHNY9701    3              
 MODEL          : CRGRO045 - Peanut                                             
 EXPERIMENT     : GHNY9701 PN able [sltx] with oversized content [1 SALO], only 
 DATA PATH      :                                                               
 TREATMENT  3   : 97 DATE2 CHINESE          CRGRO045                            
  
!                                                                                                 Soil water content (mm3/mm3) by soil depth (cm):
!                                                                                                 0-5    5-15   15-30   30-45   45-60   60-90
@YEAR DOY   DAS  SWTD  SWXD   ROFC   DRNC   PREC  IR#C  IRRC  DTWT    MWTD  TDFD  TDFC   ROFD    SW1D    SW2D    SW3D    SW4D    SW5D    SW6D    
 1997 176     0   203   110      0      0      0     0     0     0    0.19   0.0   0.0   0.00   0.225   0.225   0.225   0.232   0.216   0.226
 1997 177     1   195   103      0      2      0     0     0    45    0.15   0.0   0.0   0.00   0.198   0.214   0.219   0.228   0.213   0.217
 1997 178     2   191    98      0      2      0     0     0    90    0.11   0.0   0.0   0.00   0.175   0.204   0.213   0.224   0.210   0.215
 1997 179     3   220   127      2      5     37     0     0    89    0.39   0.0   0.0   2.15   0.284   0.267   0.264   0.256   0.231   0.220
 1997 180     4   203   110      2     17     37     0     0    90    0.30   0.0   0.0   0.00   0.236   0.230   0.234   0.234   0.219   0.215
 1997 181     5   207   114      2     18     46     0     0    90    0.40   0.0   0.0   0.00   0.278   0.240   0.235   0.235   0.221   0.217
 1997 182     6   199   106      2     21     46     0     0    90    0.31   0.0   0.0   0.00   0.239   0.223   0.225   0.228   0.215   0.215
 1997 183     7   198   105      2     21     46     0     0    90    0.24   0.0   0.0   0.00   0.220   0.222   0.225   0.228   0.215   0.215
 1997 184     8   197   104      2     21     46     0     0    90    0.18   0.0   0.0   0.00   0.202   0.220   0.225   0.228   0.215   0.215
 1997 185     9   196   103      2     21     46     0     0    90    0.14   0.0   0.0   0.00   0.186   0.219   0.225   0.228   0.215   0.215
 1997 186    10   196   104      2     21     47     0     0    90    0.39   0.0   0.0   0.00   0.197   0.218   0.224   0.228   0.215   0.215
 1997 187    11   195   103      2     21     47     0     0    90    0.30   0.0   0.0   0.00   0.182   0.217   0.224   0.228   0.215   0.215
 1997 188    12   194   102      2     21     47     0     0    90    0.23   0.0   0.0   0.00   0.167   0.215   0.224   0.227   0.215   0.215
 1997 189    13   193   101      2     21     47     0     0    90    0.18   0.0   0.0   0.00   0.154   0.214   0.223   0.227   0.215   0.215
 1997 190    14   192   100      2     21     47     0     0    90    0.14   0.0   0.0   0.00   0.142   0.212   0.223   0.227   0.215   0.215
 1997 191    15   211   118      2     22     69     0     0    90    0.39   0.0   0.0   0.00   0.287   0.264   0.241   0.237   0.221   0.217
 1997 192    16   202   110      2     28     69     0     0    90    0.30   0.0   0.0   0.00   0.252   0.234   0.230   0.230   0.216   0.216
 1997 193    17   199   107      2     28     71     0     0    90    0.40   0.0   0.0   0.00   0.243   0.223   0.226   0.228   0.215   0.215
 1997 194    18   198   105      2     28     71     0     0    90    0.31   0.0   0.0   0.00   0.223   0.221   0.225   0.228   0.215   0.215
 1997 195    19   217   125      3     31     98     0     0    89    0.40   0.0   0.0   0.37   0.276   0.264   0.261   0.250   0.229   0.219
 1997 196    20   236   144     14     52    152     0     0    81    0.36   0.0   0.0  11.31   0.287   0.268   0.264   0.267   0.259   0.254
 1997 197    21   222   129     14     66    153     0     0    85    0.39   0.0   0.0   0.00   0.267   0.243   0.247   0.255   0.248   0.239
 1997 198    22   205   113     14     79    153     0     0    88    0.30   0.0   0.0   0.00   0.241   0.225   0.230   0.235   0.225   0.223
 1997 199    23   199   106     14     82    153     0     0    90    0.23   0.0   0.0   0.00   0.222   0.217   0.226   0.228   0.217   0.217
 1997 200    24   195   102     14     82    153     0     0    90    0.18   0.0   0.0   0.00   0.201   0.208   0.220   0.225   0.215   0.215
 1997 201    25   194   101     14     82    153     0     0    90    0.27   0.0   0.0   0.00   0.191   0.206   0.219   0.225   0.215   0.215
 1997 202    26   193   101     14     82    154     0     0    90    0.36   0.0   0.0   0.00   0.187   0.205   0.219   0.225   0.215   0.215
 1997 203    27   191    99     14     82    154     0     0    90    0.27   0.0   0.0   0.00   0.170   0.201   0.217   0.224   0.215   0.215
 1997 204    28   195   102     14     82    159     0     0    90    0.40   0.0   0.0   0.00   0.243   0.201   0.215   0.224   0.214   0.215
 1997 205    29   194   102     14     82    160     0     0    90    0.35   0.0   0.0   0.00   0.240   0.202   0.214   0.223   0.214   0.215
 1997 206    30   192   100     14     82    160     0     0    90    0.27   0.0   0.0   0.00   0.218   0.198   0.211   0.222   0.213   0.215
 1997 207    31   190    98     14     82    160     0     0    90    0.21   0.0   0.0   0.00   0.197   0.194   0.209   0.221   0.213   0.215
 1997 208    32   188    96     14     82    160     0     0    90    0.16   0.0   0.0   0.00   0.179   0.189   0.207   0.220   0.212   0.215
 1997 209    33   186    94     14     82    160     0     0    90    0.12   0.0   0.0   0.00   0.161   0.184   0.204   0.219   0.212   0.215
 1997 210    34   191    98     14     82    167     0     0    90    0.39   0.0   0.0   0.00   0.249   0.189   0.202   0.218   0.211   0.215
 1997 211    35   204   111     14     82    182     0     0    90    0.32   0.0   0.0   0.00   0.287   0.254   0.230   0.226   0.210   0.214
 1997 212    36   201   109     14     83    182     0     0    90    0.24   0.0   0.0   0.00   0.258   0.232   0.227   0.228   0.215   0.215
 1997 213    37   200   107     14     83    184     0     0    90    0.40   0.0   0.0   0.00   0.253   0.225   0.226   0.228   0.214   0.215
 1997 214    38   197   104     14     83    184     0     0    90    0.31   0.0   0.0   0.00   0.227   0.218   0.222   0.226   0.213   0.214
 1997 215    39   194   101     14     83    184     0     0    90    0.23   0.0   0.0   0.00   0.204   0.212   0.218   0.225   0.212   0.214
 1997 216    40   192    99     14     83    184     0     0    90    0.18   0.0   0.0   0.00   0.185   0.208   0.215   0.224   0.211   0.214
 1997 217    41   226   134     23     90    238     0     0    87    0.39   0.0   0.0   8.93   0.285   0.265   0.262   0.266   0.254   0.227
 1997 218    42   208   116     23    106    238     0     0    89    0.30   0.0   0.0   0.00   0.259   0.236   0.237   0.240   0.228   0.220
 1997 219    43   201   108     23    111    238     0     0    90    0.23   0.0   0.0   0.00   0.245   0.223   0.227   0.230   0.219   0.216
 1997 220    44   196   103     23    111    238     0     0    90    0.18   0.0   0.0   0.00   0.221   0.210   0.218   0.226   0.215   0.215
 1997 221    45   193   100     23    111    238     0     0    90    0.14   0.0   0.0   0.00   0.199   0.204   0.215   0.224   0.214   0.215
 1997 222    46   189    97     23    111    238     0     0    90    0.10   0.0   0.0   0.00   0.175   0.195   0.209   0.222   0.213   0.214
 1997 223    47   185    93     23    111    238     0     0    90    0.08   0.0   0.0   0.00   0.154   0.185   0.203   0.219   0.211   0.214
 1997 224    48   182    90     23    111    238     0     0    90    0.06   0.0   0.0   0.00   0.136   0.178   0.198   0.217   0.209   0.214
 1997 225    49   179    87     23    111    238     0     0    90    0.05   0.0   0.0   0.00   0.124   0.169   0.192   0.214   0.207   0.213
 1997 226    50   176    83     23    111    238     0     0    90    0.04   0.0   0.0   0.00   0.115   0.159   0.186   0.211   0.205   0.213
 1997 227    51   178    86     23    111    242     0     0    90    0.39   0.0   0.0   0.00   0.192   0.154   0.183   0.210   0.204   0.213
 1997 228    52   175    82     23    111    242     0     0    90    0.30   0.0   0.0   0.00   0.169   0.145   0.177   0.207   0.202   0.212
 1997 229    53   172    79     23    111    242     0     0    90    0.23   0.0   0.0   0.00   0.150   0.138   0.172   0.205   0.201   0.212
 1997 230    54   216   123     33    112    302     0     0    90    0.41   0.0   0.0  10.47   0.274   0.263   0.261   0.250   0.225   0.218
 1997 231    55   202   109     33    121    302     0     0    90    0.31   0.0   0.0   0.00   0.244   0.227   0.231   0.232   0.216   0.217
 1997 232    56   197   104     33    121    302     0     0    90    0.24   0.0   0.0   0.00   0.226   0.216   0.221   0.226   0.213   0.215
 1997 233    57   208   116     33    123    322     0     0    90    0.41   0.0   0.0   0.00   0.274   0.256   0.237   0.235   0.219   0.217
 1997 234    58   200   108     33    127    322     0     0    90    0.31   0.0   0.0   0.00   0.248   0.227   0.225   0.228   0.217   0.216
 1997 235    59   199   106     33    127    322     0     0    90    0.24   0.0   0.0   0.00   0.242   0.223   0.222   0.226   0.216   0.215
 1997 236    60   195   102     33    127    322     0     0    90    0.18   0.0   0.0   0.00   0.215   0.214   0.217   0.224   0.214   0.215
 1997 237    61   202   110     33    127    335     0     0    90    0.41   0.0   0.0   0.00   0.279   0.239   0.226   0.227   0.214   0.215
 1997 238    62   198   106     33    127    335     0     0    90    0.31   0.0   0.0   0.00   0.250   0.221   0.222   0.226   0.214   0.215
 1997 239    63   202   109     33    127    343     0     0    90    0.42   0.0   0.0   0.00   0.283   0.232   0.225   0.227   0.215   0.214
 1997 240    64   199   107     33    127    343     0     0    90    0.32   0.0   0.0   0.00   0.257   0.223   0.224   0.227   0.215   0.215
 1997 241    65   206   113     33    127    355     0     0    90    0.42   0.0   0.0   0.00   0.278   0.247   0.232   0.232   0.217   0.216
 1997 242    66   198   105     33    130    355     0     0    90    0.32   0.0   0.0   0.00   0.246   0.221   0.221   0.226   0.214   0.215
 1997 243    67   193   100     33    130    355     0     0    90    0.24   0.0   0.0   0.00   0.215   0.208   0.212   0.222   0.211   0.214
 1997 244    68   188    96     33    130    355     0     0    90    0.18   0.0   0.0   0.00   0.188   0.197   0.205   0.218   0.209   0.214
 1997 245    69   184    91     33    130    355     0     0    90    0.14   0.0   0.0   0.00   0.164   0.186   0.198   0.215   0.207   0.213
 1997 246    70   182    89     33    130    356     0     0    90    0.31   0.0   0.0   0.00   0.156   0.180   0.194   0.213   0.205   0.213
 1997 247    71   184    92     33    130    362     0     0    90    0.37   0.0   0.0   0.00   0.242   0.176   0.190   0.211   0.204   0.213
 1997 248    72   200   108     33    130    382     0     0    90    0.40   0.0   0.0   0.00   0.282   0.259   0.226   0.218   0.201   0.212
 1997 249    73   197   104     33    130    382     0     0    90    0.30   0.0   0.0   0.00   0.253   0.229   0.222   0.226   0.205   0.211
 1997 250    74   193   100     33    130    382     0     0    90    0.22   0.0   0.0   0.00   0.238   0.219   0.215   0.222   0.202   0.210
 1997 251    75   213   121     34    131    409     0     0    90    0.43   0.0   0.0   0.39   0.278   0.258   0.256   0.246   0.222   0.216
 1997 252    76   223   130     34    135    427     0     0    88    0.36   0.0   0.0   0.00   0.289   0.266   0.262   0.263   0.240   0.224
 1997 253    77   217   124     34    141    430     0     0    88    0.43   0.0   0.0   0.00   0.285   0.241   0.244   0.252   0.239   0.226
 1997 254    78   203   111     34    151    430     0     0    89    0.32   0.0   0.0   0.00   0.254   0.223   0.227   0.234   0.222   0.219
 1997 255    79   197   105     34    152    430     0     0    90    0.24   0.0   0.0   0.00   0.236   0.210   0.219   0.226   0.215   0.218
 1997 256    80   222   129     37    158    469     0     0    88    0.44   0.0   0.0   3.08   0.280   0.259   0.258   0.264   0.242   0.225
 1997 257    81   205   112     37    171    469     0     0    89    0.33   0.0   0.0   0.00   0.251   0.228   0.232   0.238   0.223   0.218
 1997 258    82   205   113     37    173    477     0     0    89    0.45   0.0   0.0   0.00   0.280   0.232   0.229   0.234   0.221   0.218
 1997 259    83   199   106     37    175    477     0     0    90    0.34   0.0   0.0   0.00   0.248   0.217   0.221   0.226   0.215   0.217
 1997 260    84   209   116     37    177    494     0     0    90    0.45   0.0   0.0   0.00   0.281   0.260   0.237   0.235   0.219   0.218
 1997 261    85   220   127     37    180    510     0     0    89    0.41   0.0   0.0   0.00   0.292   0.268   0.260   0.252   0.232   0.222
 1997 262    86   204   111     37    192    510     0     0    90    0.31   0.0   0.0   0.00   0.255   0.231   0.233   0.234   0.219   0.217
 1997 263    87   199   106     37    194    510     0     0    90    0.23   0.0   0.0   0.00   0.242   0.219   0.223   0.227   0.215   0.216
 1997 264    88   193   100     37    194    510     0     0    90    0.17   0.0   0.0   0.00   0.220   0.204   0.213   0.222   0.211   0.215
 1997 265    89   210   118     37    195    534     0     0    90    0.45   0.0   0.0   0.02   0.281   0.260   0.244   0.238   0.220   0.217
 1997 266    90   203   110     37    201    534     0     0    90    0.36   0.0   0.0   0.00   0.259   0.234   0.231   0.231   0.216   0.216
 1997 267    91   202   110     37    201    539     0     0    90    0.43   0.0   0.0   0.00   0.280   0.228   0.226   0.230   0.216   0.216
 1997 268    92   200   107     37    202    539     0     0    90    0.32   0.0   0.0   0.00   0.258   0.222   0.224   0.228   0.215   0.216
 1997 269    93   196   103     37    202    539     0     0    90    0.24   0.0   0.0   0.00   0.243   0.212   0.218   0.224   0.212   0.215
 1997 270    94   227   135     53    215    607     0     0    85    0.46   0.0   0.0  16.48   0.276   0.257   0.256   0.263   0.256   0.238
 1997 271    95   204   112     53    232    607     0     0    89    0.34   0.0   0.0   0.00   0.242   0.222   0.228   0.236   0.226   0.222
 1997 272    96   201   108     53    234    611     0     0    89    0.47   0.0   0.0   0.00   0.263   0.218   0.221   0.228   0.218   0.219
 1997 273    97   196   104     53    234    611     0     0    90    0.35   0.0   0.0   0.00   0.242   0.208   0.213   0.224   0.216   0.218
 1997 274    98   191    99     53    234    611     0     0    90    0.26   0.0   0.0   0.00   0.224   0.195   0.204   0.219   0.212   0.217
 1997 275    99   206   113     53    234    632     0     0    90    0.47   0.0   0.0   0.00   0.276   0.257   0.231   0.228   0.214   0.217
 1997 276   100   200   108     53    236    632     0     0    90    0.35   0.0   0.0   0.00   0.251   0.229   0.225   0.226   0.214   0.217
 1997 277   101   196   103     53    236    632     0     0    90    0.25   0.0   0.0   0.00   0.235   0.218   0.217   0.222   0.211   0.216

*DSSAT Cropping System Model Ver. 4.5.1.023 -Stub         OCT 13, 2014; 10:48:17
                                                                                
*RUN   4        : 97 DATE2 F-MIX            CRGRO045 GHNY9701    4              
 MODEL          : CRGRO045 - Peanut                                             
 EXPERIMENT     : GHNY9701 PN able [sltx] with oversized content [1 SALO], only 
 DATA PATH      :                                                               
 TREATMENT  4   : 97 DATE2 F-MIX            CRGRO045                            
  
!                                                                                                 Soil water content (mm3/mm3) by soil depth (cm):
!                                                                                                 0-5    5-15   15-30   30-45   45-60   60-90
@YEAR DOY   DAS  SWTD  SWXD   ROFC   DRNC   PREC  IR#C  IRRC  DTWT    MWTD  TDFD  TDFC   ROFD    SW1D    SW2D    SW3D    SW4D    SW5D    SW6D    
 1997 176     0   203   110      0      0      0     0     0     0    0.19   0.0   0.0   0.00   0.225   0.225   0.225   0.232   0.216   0.226
 1997 177     1   195   103      0      2      0     0     0    45    0.15   0.0   0.0   0.00   0.198   0.214   0.219   0.228   0.213   0.217
 1997 178     2   191    98      0      2      0     0     0    90    0.11   0.0   0.0   0.00   0.175   0.204   0.213   0.224   0.210   0.215
 1997 179     3   220   127      2      5     37     0     0    89    0.39   0.0   0.0   2.15   0.284   0.267   0.264   0.256   0.231   0.220
 1997 180     4   203   110      2     17     37     0     0    90    0.30   0.0   0.0   0.00   0.236   0.230   0.234   0.234   0.219   0.215
 1997 181     5   207   114      2     18     46     0     0    90    0.40   0.0   0.0   0.00   0.278   0.240   0.235   0.235   0.221   0.217
 1997 182     6   199   106      2     21     46     0     0    90    0.31   0.0   0.0   0.00   0.239   0.223   0.225   0.228   0.215   0.215
 1997 183     7   198   105      2     21     46     0     0    90    0.24   0.0   0.0   0.00   0.220   0.222   0.225   0.228   0.215   0.215
 1997 184     8   197   104      2     21     46     0     0    90    0.18   0.0   0.0   0.00   0.202   0.220   0.225   0.228   0.215   0.215
 1997 185     9   196   103      2     21     46     0     0    90    0.14   0.0   0.0   0.00   0.187   0.219   0.225   0.228   0.215   0.215
 1997 186    10   196   104      2     21     47     0     0    90    0.39   0.0   0.0   0.00   0.197   0.218   0.224   0.228   0.215   0.215
 1997 187    11   195   103      2     21     47     0     0    90    0.30   0.0   0.0   0.00   0.182   0.217   0.224   0.228   0.215   0.215
 1997 188    12   194   102      2     21     47     0     0    90    0.23   0.0   0.0   0.00   0.167   0.215   0.224   0.227   0.215   0.215
 1997 189    13   193   101      2     21     47     0     0    90    0.18   0.0   0.0   0.00   0.154   0.214   0.223   0.227   0.215   0.215
 1997 190    14   192   100      2     21     47     0     0    90    0.14   0.0   0.0   0.00   0.143   0.212   0.223   0.227   0.215   0.215
 1997 191    15   211   118      2     22     69     0     0    90    0.39   0.0   0.0   0.00   0.287   0.264   0.241   0.237   0.221   0.217
 1997 192    16   202   110      2     28     69     0     0    90    0.30   0.0   0.0   0.00   0.252   0.234   0.230   0.230   0.216   0.216
 1997 193    17   199   107      2     28     71     0     0    90    0.40   0.0   0.0   0.00   0.243   0.223   0.226   0.228   0.215   0.215
 1997 194    18   198   106      2     28     71     0     0    90    0.31   0.0   0.0   0.00   0.223   0.221   0.225   0.228   0.215   0.215
 1997 195    19   217   125      3     31     98     0     0    89    0.40   0.0   0.0   0.37   0.276   0.264   0.261   0.250   0.230   0.219
 1997 196    20   236   144     14     53    152     0     0    81    0.36   0.0   0.0  11.31   0.287   0.268   0.264   0.267   0.259   0.254
 1997 197    21   222   129     14     66    153     0     0    85    0.39   0.0   0.0   0.00   0.267   0.243   0.247   0.255   0.248   0.239
 1997 198    22   205   113     14     79    153     0     0    88    0.30   0.0   0.0   0.00   0.241   0.225   0.230   0.235   0.225   0.223
 1997 199    23   199   106     14     82    153     0     0    90    0.23   0.0   0.0   0.00   0.222   0.217   0.226   0.228   0.217   0.217
 1997 200    24   195   102     14     82    153     0     0    90    0.18   0.0   0.0   0.00   0.201   0.209   0.220   0.225   0.215   0.215
 1997 201    25   194   101     14     82    153     0     0    90    0.27   0.0   0.0   0.00   0.192   0.207   0.220   0.225   0.215   0.215
 1997 202    26   193   101     14     82    154     0     0    90    0.36   0.0   0.0   0.00   0.187   0.205   0.219   0.225   0.215   0.215
 1997 203    27   192    99     14     82    154     0     0    90    0.27   0.0   0.0   0.00   0.170   0.202   0.217   0.224   0.215   0.215
 1997 204    28   195   103     14     82    159     0     0    90    0.40   0.0   0.0   0.00   0.243   0.202   0.216   0.224   0.214   0.215
 1997 205    29   195   102     14     82    160     0     0    90    0.35   0.0   0.0   0.00   0.240   0.203   0.214   0.223   0.214   0.215
 1997 206    30   193   100     14     82    160     0     0    90    0.27   0.0   0.0   0.00   0.218   0.199   0.212   0.223   0.214   0.215
 1997 207    31   191    98     14     82    160     0     0    90    0.21   0.0   0.0   0.00   0.198   0.195   0.210   0.222   0.213   0.215
 1997 208    32   189    96     14     82    160     0     0    90    0.16   0.0   0.0   0.00   0.179   0.191   0.207   0.221   0.213   0.215
 1997 209    33   187    94     14     82    160     0     0    90    0.12   0.0   0.0   0.00   0.162   0.186   0.205   0.220   0.212   0.215
 1997 210    34   191    99     14     82    167     0     0    90    0.39   0.0   0.0   0.00   0.249   0.191   0.203   0.219   0.212   0.215
 1997 211    35   204   112     14     82    182     0     0    90    0.32   0.0   0.0   0.00   0.287   0.254   0.230   0.227   0.211   0.214
 1997 212    36   201   109     14     83    182     0     0    90    0.24   0.0   0.0   0.00   0.258   0.232   0.227   0.228   0.215   0.215
 1997 213    37   200   107     14     83    184     0     0    90    0.40   0.0   0.0   0.00   0.253   0.225   0.226   0.228   0.214   0.215
 1997 214    38   197   104     14     83    184     0     0    90    0.31   0.0   0.0   0.00   0.227   0.218   0.222   0.227   0.213   0.215
 1997 215    39   194   101     14     83    184     0     0    90    0.23   0.0   0.0   0.00   0.204   0.212   0.218   0.225   0.212   0.214
 1997 216    40   192    99     14     83    184     0     0    90    0.18   0.0   0.0   0.00   0.184   0.207   0.215   0.224   0.211   0.214
 1997 217    41   226   134     23     90    238     0     0    87    0.39   0.0   0.0   8.93   0.285   0.265   0.262   0.266   0.255   0.228
 1997 218    42   208   116     23    107    238     0     0    89    0.30   0.0   0.0   0.00   0.259   0.236   0.237   0.240   0.229   0.220
 1997 219    43   201   108     23    111    238     0     0    90    0.23   0.0   0.0   0.00   0.245   0.223   0.227   0.231   0.219   0.216
 1997 220    44   196   103     23    111    238     0     0    90    0.18   0.0   0.0   0.00   0.221   0.210   0.218   0.226   0.216   0.215
 1997 221    45   193   100     23    111    238     0     0    90    0.14   0.0   0.0   0.00   0.199   0.203   0.214   0.224   0.215   0.215
 1997 222    46   189    96     23    111    238     0     0    90    0.10   0.0   0.0   0.00   0.175   0.194   0.208   0.222   0.213   0.214
 1997 223    47   185    93     23    111    238     0     0    90    0.08   0.0   0.0   0.00   0.153   0.185   0.202   0.219   0.211   0.214
 1997 224    48   182    90     23    111    238     0     0    90    0.06   0.0   0.0   0.00   0.135   0.177   0.197   0.217   0.210   0.214
 1997 225    49   179    86     23    111    238     0     0    90    0.05   0.0   0.0   0.00   0.123   0.167   0.191   0.214   0.208   0.214
 1997 226    50   176    83     23    111    238     0     0    90    0.04   0.0   0.0   0.00   0.114   0.157   0.185   0.211   0.206   0.213
 1997 227    51   178    86     23    111    242     0     0    90    0.39   0.0   0.0   0.00   0.191   0.152   0.181   0.210   0.205   0.213
 1997 228    52   174    82     23    111    242     0     0    90    0.30   0.0   0.0   0.00   0.168   0.142   0.175   0.207   0.203   0.213
 1997 229    53   171    79     23    111    242     0     0    90    0.23   0.0   0.0   0.00   0.149   0.135   0.170   0.204   0.201   0.212
 1997 230    54   215   123     33    112    302     0     0    90    0.41   0.0   0.0  10.40   0.275   0.263   0.260   0.249   0.224   0.217
 1997 231    55   202   109     33    121    302     0     0    90    0.31   0.0   0.0   0.00   0.245   0.227   0.231   0.232   0.216   0.216
 1997 232    56   197   104     33    121    302     0     0    90    0.24   0.0   0.0   0.00   0.227   0.215   0.221   0.228   0.213   0.215
 1997 233    57   208   116     33    122    322     0     0    90    0.41   0.0   0.0   0.00   0.274   0.256   0.237   0.236   0.219   0.217
 1997 234    58   200   108     33    127    322     0     0    90    0.31   0.0   0.0   0.00   0.249   0.227   0.225   0.228   0.215   0.216
 1997 235    59   198   106     33    127    322     0     0    90    0.24   0.0   0.0   0.00   0.243   0.223   0.222   0.227   0.214   0.216
 1997 236    60   195   102     33    127    322     0     0    90    0.18   0.0   0.0   0.00   0.216   0.214   0.216   0.224   0.212   0.215
 1997 237    61   202   110     33    127    335     0     0    90    0.41   0.0   0.0   0.00   0.280   0.239   0.226   0.227   0.214   0.214
 1997 238    62   198   106     33    127    335     0     0    90    0.31   0.0   0.0   0.00   0.251   0.221   0.221   0.226   0.214   0.215
 1997 239    63   202   109     33    127    343     0     0    90    0.42   0.0   0.0   0.00   0.284   0.232   0.225   0.227   0.215   0.214
 1997 240    64   199   107     33    127    343     0     0    90    0.33   0.0   0.0   0.00   0.258   0.223   0.224   0.227   0.215   0.215
 1997 241    65   206   113     33    127    355     0     0    90    0.42   0.0   0.0   0.00   0.279   0.247   0.232   0.232   0.217   0.216
 1997 242    66   198   105     33    130    355     0     0    90    0.31   0.0   0.0   0.00   0.247   0.221   0.220   0.226   0.214   0.215
 1997 243    67   193   100     33    130    355     0     0    90    0.24   0.0   0.0   0.00   0.216   0.208   0.212   0.222   0.211   0.215
 1997 244    68   188    96     33    130    355     0     0    90    0.18   0.0   0.0   0.00   0.189   0.197   0.205   0.218   0.209   0.214
 1997 245    69   184    91     33    130    355     0     0    90    0.14   0.0   0.0   0.00   0.165   0.186   0.198   0.215   0.207   0.214
 1997 246    70   182    89     33    130    356     0     0    90    0.31   0.0   0.0   0.00   0.160   0.180   0.194   0.213   0.205   0.213
 1997 247    71   185    92     33    130    362     0     0    90    0.37   0.0   0.0   0.00   0.247   0.177   0.189   0.211   0.204   0.213
 1997 248    72   200   108     33    130    382     0     0    90    0.40   0.0   0.0   0.00   0.283   0.259   0.226   0.217   0.201   0.212
 1997 249    73   197   105     33    130    382     0     0    90    0.30   0.0   0.0   0.00   0.255   0.229   0.222   0.226   0.205   0.212
 1997 250    74   193   101     33    130    382     0     0    90    0.22   0.0   0.0   0.00   0.241   0.219   0.215   0.222   0.202   0.211
 1997 251    75   213   121     34    131    409     0     0    90    0.44   0.0   0.0   0.39   0.280   0.258   0.255   0.246   0.222   0.216
 1997 252    76   223   130     34    136    427     0     0    88    0.38   0.0   0.0   0.00   0.290   0.265   0.262   0.263   0.240   0.224
 1997 253    77   217   124     34    142    430     0     0    88    0.42   0.0   0.0   0.00   0.287   0.241   0.244   0.252   0.239   0.226
 1997 254    78   203   111     34    152    430     0     0    89    0.31   0.0   0.0   0.00   0.256   0.223   0.227   0.234   0.222   0.219
 1997 255    79   197   104     34    153    430     0     0    90    0.23   0.0   0.0   0.00   0.239   0.209   0.218   0.226   0.215   0.216
 1997 256    80   222   129     37    159    469     0     0    88    0.45   0.0   0.0   3.06   0.282   0.259   0.257   0.264   0.242   0.225
 1997 257    81   205   112     37    172    469     0     0    89    0.33   0.0   0.0   0.00   0.253   0.228   0.231   0.238   0.222   0.218
 1997 258    82   205   113     37    174    477     0     0    89    0.46   0.0   0.0   0.00   0.282   0.232   0.228   0.233   0.221   0.219
 1997 259    83   199   106     37    176    477     0     0    90    0.34   0.0   0.0   0.00   0.251   0.216   0.220   0.226   0.215   0.218
 1997 260    84   209   116     37    177    494     0     0    90    0.46   0.0   0.0   0.00   0.283   0.260   0.236   0.235   0.219   0.218
 1997 261    85   220   127     37    181    510     0     0    89    0.46   0.0   0.0   0.00   0.293   0.268   0.260   0.252   0.232   0.222
 1997 262    86   204   111     37    193    510     0     0    90    0.35   0.0   0.0   0.00   0.257   0.231   0.232   0.234   0.219   0.217
 1997 263    87   199   106     37    194    510     0     0    90    0.26   0.0   0.0   0.00   0.246   0.219   0.223   0.227   0.215   0.217
 1997 264    88   193   100     37    194    510     0     0    90    0.19   0.0   0.0   0.00   0.226   0.203   0.212   0.222   0.211   0.216
 1997 265    89   210   118     37    195    534     0     0    90    0.46   0.0   0.0   0.02   0.283   0.260   0.243   0.238   0.220   0.217
 1997 266    90   203   111     37    201    534     0     0    90    0.41   0.0   0.0   0.00   0.261   0.234   0.230   0.230   0.216   0.217
 1997 267    91   203   110     37    202    539     0     0    90    0.39   0.0   0.0   0.00   0.284   0.227   0.226   0.229   0.216   0.216
 1997 268    92   200   107     37    202    539     0     0    90    0.33   0.0   0.0   0.00   0.259   0.222   0.224   0.227   0.215   0.216
 1997 269    93   196   104     37    202    539     0     0    90    0.24   0.0   0.0   0.00   0.247   0.211   0.217   0.224   0.212   0.215
 1997 270    94   227   135     53    216    607     0     0    85    0.48   0.0   0.0  16.35   0.279   0.257   0.256   0.263   0.256   0.239
 1997 271    95   205   112     53    233    607     0     0    88    0.35   0.0   0.0   0.00   0.245   0.222   0.227   0.235   0.226   0.223
 1997 272    96   201   108     53    235    611     0     0    89    0.49   0.0   0.0   0.00   0.267   0.218   0.220   0.227   0.218   0.219
 1997 273    97   196   103     53    236    611     0     0    90    0.36   0.0   0.0   0.00   0.246   0.209   0.212   0.223   0.215   0.216
 1997 274    98   191    98     53    236    611     0     0    90    0.26   0.0   0.0   0.00   0.229   0.195   0.203   0.219   0.212   0.215
 1997 275    99   205   113     53    236    632     0     0    90    0.49   0.0   0.0   0.00   0.279   0.257   0.230   0.228   0.214   0.216
 1997 276   100   200   107     53    238    632     0     0    90    0.38   0.0   0.0   0.00   0.254   0.228   0.224   0.226   0.214   0.215
 1997 277   101   195   103     53    238    632     0     0    90    0.28   0.0   0.0   0.00   0.240   0.217   0.216   0.222   0.211   0.215
 1997 278   102   226   133     57    243    674     0     0    88    0.50   0.0   0.0   3.62   0.293   0.268   0.263   0.267   0.246   0.225
 1997 279   103   223   130     57    251    684     0     0    87    0.40   0.0   0.0   0.00   0.282   0.259   0.254   0.260   0.247   0.229
 1997 280   104   204   111     57    265    684     0     0    89    0.29   0.0   0.0   0.00   0.250   0.225   0.228   0.235   0.224   0.220
 1997 281   105   202   109     57    267    686     0     0    89    0.51   0.0   0.0   0.00   0.260   0.223   0.226   0.229   0.219   0.218
 1997 282   106   198   105     57    267    686     0     0    90    0.37   0.0   0.0   0.00   0.246   0.212   0.218   0.225   0.216   0.218
 1997 283   107   193   101     57    267    686     0     0    90    0.27   0.0   0.0   0.00   0.231   0.199   0.210   0.221   0.213   0.217
 1997 284   108   188    96     57    267    686     0     0    90    0.19   0.0   0.0   0.00   0.215   0.186   0.201   0.217   0.210   0.216
 1997 285   109   184    91     57    267    686     0     0    90    0.14   0.0   0.0   0.00   0.191   0.176   0.194   0.213   0.207   0.215
 1997 286   110   179    86     57    267    686     0     0    90    0.10   0.0   0.0   0.00   0.165   0.163   0.186   0.209   0.204   0.215
 1997 287   111   176    83     57    267    687     0     0    90    0.21   0.0   0.0   0.00   0.154   0.155   0.181   0.207   0.203   0.214
 1997 288   112   189    97     57    267    705     0     0    90    0.45   0.0   0.0   0.00   0.272   0.228   0.188   0.202   0.200   0.214
 1997 289   113   183    91     57    267    705     0     0    90    0.32   0.0   0.0   0.00   0.242   0.212   0.181   0.197   0.196   0.213
 1997 290   114   180    88     57    267    705     0     0    90    0.23   0.0   0.0   0.00   0.227   0.204   0.176   0.195   0.194   0.212
 1997 291   115   197   104     57    267    725     0     0    90    0.51   0.0   0.0   0.00   0.288   0.264   0.226   0.199   0.192   0.212
 1997 292   116   194   101     57    267    725     0     0    90    0.41   0.0   0.0   0.00   0.258   0.232   0.223   0.217   0.190   0.211
 1997 293   117   191    99     57    267    725     0     0    90    0.29   0.0   0.0   0.00   0.248   0.221   0.219   0.214   0.188   0.211
 1997 294   118   188    96     57    267    725     0     0    90    0.21   0.0   0.0   0.00   0.233   0.214   0.215   0.212   0.187   0.210
 1997 295   119   183    91     57    267    725     0     0    90    0.15   0.0   0.0   0.00   0.205   0.201   0.206   0.208   0.184   0.210
 1997 296   120   177    85     57    267    725     0     0    90    0.11   0.0   0.0   0.00   0.175   0.186   0.196   0.203   0.181   0.209
 1997 297   121   183    90     57    267    736     0     0    90    0.51   0.0   0.0   0.00   0.271   0.217   0.188   0.199   0.178   0.209
 1997 298   122   178    85     57    267    736     0     0    90    0.36   0.0   0.0   0.00   0.245   0.208   0.179   0.195   0.176   0.208

*DSSAT Cropping System Model Ver. 4.5.1.023 -Stub         OCT 13, 2014; 10:48:17
                                                                                
*RUN   5        : 97 DATE3 CHINESE          CRGRO045 GHNY9701    5              
 MODEL          : CRGRO045 - Peanut                                             
 EXPERIMENT     : GHNY9701 PN able [sltx] with oversized content [1 SALO], only 
 DATA PATH      :                                                               
 TREATMENT  5   : 97 DATE3 CHINESE          CRGRO045                            
  
!                                                                                                 Soil water content (mm3/mm3) by soil depth (cm):
!                                                                                                 0-5    5-15   15-30   30-45   45-60   60-90
@YEAR DOY   DAS  SWTD  SWXD   ROFC   DRNC   PREC  IR#C  IRRC  DTWT    MWTD  TDFD  TDFC   ROFD    SW1D    SW2D    SW3D    SW4D    SW5D    SW6D    
 1997 204     0   175    83      0      0      0     0     0     0    0.19   0.0   0.0   0.00   0.160   0.160   0.160   0.213   0.202   0.217
 1997 205     1   173    81      0      0      1     0     0    45    0.34   0.0   0.0   0.00   0.167   0.154   0.156   0.210   0.200   0.215
 1997 206     2   172    80      0      0      1     0     0    90    0.26   0.0   0.0   0.00   0.154   0.153   0.156   0.210   0.200   0.215
 1997 207     3   172    79      0      0      1     0     0    90    0.20   0.0   0.0   0.00   0.143   0.152   0.156   0.210   0.200   0.215
 1997 208     4   171    78      0      0      1     0     0    90    0.15   0.0   0.0   0.00   0.133   0.151   0.156   0.210   0.200   0.215
 1997 209     5   170    78      0      0      1     0     0    90    0.12   0.0   0.0   0.00   0.123   0.151   0.156   0.209   0.200   0.215
 1997 210     6   176    83      0      0      8     0     0    90    0.39   0.0   0.0   0.00   0.233   0.150   0.156   0.209   0.199   0.215
 1997 211     7   189    97      0      0     23     0     0    90    0.32   0.0   0.0   0.00   0.285   0.239   0.173   0.208   0.198   0.214
 1997 212     8   188    95      0      0     23     0     0    90    0.24   0.0   0.0   0.00   0.257   0.228   0.183   0.207   0.198   0.213
 1997 213     9   186    94      0      0     25     0     0    90    0.40   0.0   0.0   0.00   0.250   0.224   0.183   0.205   0.196   0.212
 1997 214    10   185    93      0      0     25     0     0    90    0.30   0.0   0.0   0.00   0.230   0.223   0.183   0.205   0.196   0.212
 1997 215    11   184    91      0      0     25     0     0    90    0.23   0.0   0.0   0.00   0.212   0.221   0.182   0.205   0.196   0.212
 1997 216    12   183    90      0      0     25     0     0    90    0.18   0.0   0.0   0.00   0.195   0.220   0.182   0.205   0.196   0.212
 1997 217    13   221   129      9      3     79     0     0    89    0.39   0.0   0.0   9.26   0.283   0.266   0.264   0.266   0.235   0.220
 1997 218    14   207   114      9     16     79     0     0    90    0.30   0.0   0.0   0.00   0.257   0.237   0.239   0.241   0.222   0.217
 1997 219    15   201   108      9     19     79     0     0    90    0.23   0.0   0.0   0.00   0.241   0.225   0.228   0.231   0.217   0.216
 1997 220    16   196   103      9     19     79     0     0    90    0.18   0.0   0.0   0.00   0.214   0.214   0.222   0.227   0.214   0.214
 1997 221    17   195   102      9     19     79     0     0    90    0.14   0.0   0.0   0.00   0.197   0.213   0.222   0.227   0.214   0.214
 1997 222    18   193   101      9     19     79     0     0    90    0.10   0.0   0.0   0.00   0.180   0.211   0.221   0.227   0.214   0.214
 1997 223    19   192   100      9     19     79     0     0    90    0.08   0.0   0.0   0.00   0.166   0.208   0.220   0.227   0.214   0.214
 1997 224    20   191    99      9     19     79     0     0    90    0.06   0.0   0.0   0.00   0.152   0.207   0.219   0.227   0.214   0.214
 1997 225    21   190    98      9     19     79     0     0    90    0.05   0.0   0.0   0.00   0.140   0.204   0.218   0.226   0.214   0.214
 1997 226    22   189    97      9     19     79     0     0    90    0.04   0.0   0.0   0.00   0.130   0.202   0.217   0.226   0.213   0.214
 1997 227    23   193   100      9     19     83     0     0    90    0.38   0.0   0.0   0.00   0.205   0.200   0.216   0.226   0.213   0.214
 1997 228    24   191    99      9     19     83     0     0    90    0.29   0.0   0.0   0.00   0.188   0.198   0.215   0.225   0.213   0.214
 1997 229    25   190    98      9     19     83     0     0    90    0.23   0.0   0.0   0.00   0.172   0.196   0.214   0.225   0.213   0.213
 1997 230    26   226   134     21     27    143     0     0    87    0.40   0.0   0.0  11.68   0.278   0.264   0.262   0.265   0.258   0.228
 1997 231    27   205   113     21     43    143     0     0    89    0.30   0.0   0.0   0.00   0.239   0.229   0.233   0.238   0.228   0.219
 1997 232    28   198   106     21     46    143     0     0    90    0.23   0.0   0.0   0.00   0.215   0.219   0.224   0.229   0.218   0.217
 1997 233    29   209   117     21     48    163     0     0    90    0.40   0.0   0.0   0.00   0.265   0.258   0.240   0.237   0.222   0.217
 1997 234    30   200   108     21     53    163     0     0    90    0.30   0.0   0.0   0.00   0.240   0.229   0.227   0.229   0.216   0.216
 1997 235    31   199   106     21     53    163     0     0    90    0.23   0.0   0.0   0.00   0.231   0.225   0.225   0.228   0.215   0.215
 1997 236    32   197   104     21     53    163     0     0    90    0.18   0.0   0.0   0.00   0.210   0.221   0.223   0.227   0.215   0.215
 1997 237    33   204   112     21     53    176     0     0    90    0.39   0.0   0.0   0.00   0.272   0.242   0.230   0.231   0.216   0.216
 1997 238    34   199   107     21     54    176     0     0    90    0.30   0.0   0.0   0.00   0.242   0.223   0.225   0.228   0.214   0.215
 1997 239    35   202   110     21     54    184     0     0    90    0.40   0.0   0.0   0.00   0.276   0.232   0.227   0.229   0.215   0.215
 1997 240    36   199   107     21     54    184     0     0    90    0.31   0.0   0.0   0.00   0.252   0.223   0.225   0.227   0.215   0.215
 1997 241    37   205   113     21     55    196     0     0    90    0.40   0.0   0.0   0.00   0.270   0.247   0.233   0.233   0.218   0.216
 1997 242    38   198   105     21     58    196     0     0    90    0.31   0.0   0.0   0.00   0.236   0.222   0.222   0.226   0.215   0.214
 1997 243    39   195   102     21     58    196     0     0    90    0.24   0.0   0.0   0.00   0.211   0.215   0.218   0.224   0.214   0.214
 1997 244    40   192    99     21     58    196     0     0    90    0.18   0.0   0.0   0.00   0.189   0.208   0.214   0.222   0.212   0.214
 1997 245    41   189    97     21     58    196     0     0    90    0.14   0.0   0.0   0.00   0.169   0.202   0.210   0.221   0.211   0.214
 1997 246    42   188    95     21     58    197     0     0    90    0.30   0.0   0.0   0.00   0.163   0.197   0.207   0.220   0.211   0.214
 1997 247    43   191    98     21     58    203     0     0    90    0.35   0.0   0.0   0.00   0.243   0.197   0.205   0.218   0.210   0.214
 1997 248    44   206   114     21     58    223     0     0    90    0.37   0.0   0.0   0.00   0.278   0.262   0.236   0.231   0.215   0.214
 1997 249    45   200   108     21     61    223     0     0    90    0.29   0.0   0.0   0.00   0.249   0.231   0.225   0.228   0.214   0.215
 1997 250    46   196   104     21     61    223     0     0    90    0.22   0.0   0.0   0.00   0.231   0.218   0.220   0.225   0.212   0.214
 1997 251    47   215   122     21     63    250     0     0    89    0.40   0.0   0.0   0.45   0.274   0.259   0.257   0.247   0.226   0.218
 1997 252    48   224   131     21     68    268     0     0    88    0.34   0.0   0.0   0.00   0.287   0.266   0.262   0.264   0.242   0.225
 1997 253    49   217   124     21     75    271     0     0    88    0.40   0.0   0.0   0.00   0.282   0.242   0.244   0.252   0.240   0.227
 1997 254    50   203   111     21     85    271     0     0    89    0.31   0.0   0.0   0.00   0.251   0.223   0.228   0.234   0.222   0.219
 1997 255    51   197   105     21     86    271     0     0    90    0.23   0.0   0.0   0.00   0.230   0.211   0.220   0.226   0.215   0.218
 1997 256    52   222   129     25     91    310     0     0    88    0.41   0.0   0.0   3.28   0.277   0.260   0.258   0.264   0.241   0.225
 1997 257    53   205   112     25    105    310     0     0    90    0.31   0.0   0.0   0.00   0.248   0.229   0.232   0.238   0.223   0.218
 1997 258    54   205   113     25    107    318     0     0    89    0.41   0.0   0.0   0.00   0.278   0.232   0.229   0.234   0.221   0.218
 1997 259    55   198   106     25    109    318     0     0    90    0.31   0.0   0.0   0.00   0.245   0.217   0.221   0.227   0.215   0.217
 1997 260    56   209   116     25    110    335     0     0    90    0.41   0.0   0.0   0.00   0.279   0.260   0.237   0.235   0.219   0.217
 1997 261    57   220   127     25    113    351     0     0    89    0.37   0.0   0.0   0.00   0.291   0.268   0.260   0.252   0.232   0.222
 1997 262    58   204   111     25    125    351     0     0    90    0.28   0.0   0.0   0.00   0.254   0.231   0.233   0.234   0.219   0.217
 1997 263    59   199   106     25    127    351     0     0    90    0.21   0.0   0.0   0.00   0.240   0.219   0.224   0.228   0.215   0.216
 1997 264    60   193   100     25    127    351     0     0    90    0.16   0.0   0.0   0.00   0.216   0.204   0.213   0.222   0.211   0.215
 1997 265    61   210   118     25    128    375     0     0    90    0.41   0.0   0.0   0.05   0.280   0.260   0.244   0.238   0.220   0.217
 1997 266    62   203   110     25    133    375     0     0    90    0.32   0.0   0.0   0.00   0.259   0.234   0.231   0.231   0.216   0.216
 1997 267    63   202   110     25    134    380     0     0    90    0.41   0.0   0.0   0.00   0.279   0.227   0.226   0.230   0.216   0.216
 1997 268    64   200   107     25    135    380     0     0    90    0.31   0.0   0.0   0.00   0.257   0.222   0.224   0.228   0.215   0.216
 1997 269    65   196   103     25    135    380     0     0    90    0.24   0.0   0.0   0.00   0.228   0.213   0.219   0.225   0.213   0.215
 1997 270    66   227   135     42    147    448     0     0    85    0.42   0.0   0.0  16.80   0.276   0.257   0.257   0.263   0.256   0.238
 1997 271    67   204   112     42    164    448     0     0    89    0.32   0.0   0.0   0.00   0.241   0.222   0.228   0.236   0.226   0.222
 1997 272    68   201   108     42    167    452     0     0    89    0.43   0.0   0.0   0.00   0.263   0.218   0.221   0.228   0.218   0.219
 1997 273    69   196   104     42    167    452     0     0    90    0.32   0.0   0.0   0.00   0.242   0.208   0.213   0.224   0.216   0.218
 1997 274    70   191    98     42    167    452     0     0    90    0.24   0.0   0.0   0.00   0.223   0.195   0.204   0.219   0.212   0.217
 1997 275    71   206   113     42    167    473     0     0    90    0.43   0.0   0.0   0.00   0.276   0.257   0.230   0.228   0.214   0.217
 1997 276    72   200   108     42    169    473     0     0    90    0.32   0.0   0.0   0.00   0.251   0.229   0.225   0.226   0.214   0.216
 1997 277    73   196   103     42    169    473     0     0    90    0.24   0.0   0.0   0.00   0.235   0.218   0.217   0.222   0.211   0.216
 1997 278    74   225   133     46    174    515     0     0    88    0.43   0.0   0.0   4.02   0.292   0.268   0.264   0.267   0.246   0.225
 1997 279    75   223   130     46    182    525     0     0    87    0.37   0.0   0.0   0.00   0.279   0.259   0.254   0.260   0.247   0.229
 1997 280    76   204   111     46    196    525     0     0    89    0.28   0.0   0.0   0.00   0.246   0.225   0.229   0.236   0.224   0.220
 1997 281    77   202   109     46    198    527     0     0    90    0.44   0.0   0.0   0.00   0.258   0.223   0.227   0.229   0.219   0.218
[...]
 1997 294    90   188    95     46    198    566     0     0    90    0.18   0.0   0.0   0.00   0.223   0.214   0.216   0.213   0.188   0.209
 1997 295    91   183    90     46    198    566     0     0    90    0.14   0.0   0.0   0.00   0.194   0.202   0.208   0.209   0.185   0.209
 1997 296    92   177    85     46    198    566     0     0    90    0.10   0.0   0.0   0.00   0.166   0.188   0.198   0.205   0.182   0.208
 1997 297    93   183    90     46    198    577     0     0    90    0.45   0.0   0.0   0.00   0.269   0.215   0.190   0.201   0.179   0.208
 1997 298    94   178    85     46    198    577     0     0    90    0.33   0.0   0.0   0.00   0.242   0.206   0.182   0.197   0.177   0.206
 1997 299    95   180    87     46    198    585     0     0    90    0.47   0.0   0.0   0.00   0.276   0.221   0.184   0.192   0.174   0.205
 1997 300    96   175    83     46    198    585     0     0    90    0.35   0.0   0.0   0.00   0.244   0.214   0.175   0.187   0.173   0.204
 1997 301    97   173    81     46    198    589     0     0    90    0.47   0.0   0.0   0.00   0.261   0.214   0.169   0.182   0.171   0.203
 1997 302    98   168    76     46    198    589     0     0    90    0.35   0.0   0.0   0.00   0.235   0.200   0.159   0.177   0.169   0.201
 1997 303    99   163    70     46    198    589     0     0    90    0.26   0.0   0.0   0.00   0.204   0.187   0.150   0.173   0.168   0.201
 1997 304   100   159    67     46    198    589     0     0    90    0.19   0.0   0.0   0.00   0.180   0.177   0.144   0.170   0.167   0.200
 1997 305   101   154    61     46    198    589     0     0    90    0.14   0.0   0.0   0.00   0.153   0.163   0.135   0.166   0.167   0.200

*DSSAT Cropping System Model Ver. 4.5.1.023 -Stub         OCT 13, 2014; 10:48:17
                                                                                
*RUN   6        : 97 DATE3 F-MIX            CRGRO045 GHNY9701    6              
 MODEL          : CRGRO045 - Peanut                                             
 EXPERIMENT     : GHNY9701 PN able [sltx] with oversized content [1 SALO], only 
 DATA PATH      :                                                               
 TREATMENT  6   : 97 DATE3 F-MIX            CRGRO045                            
  
!                                                                                                 Soil water content (mm3/mm3) by soil depth (cm):
!                                                                                                 0-5    5-15   15-30   30-45   45-60   60-90
@YEAR DOY   DAS  SWTD  SWXD   ROFC   DRNC   PREC  IR#C  IRRC  DTWT    MWTD  TDFD  TDFC   ROFD    SW1D    SW2D    SW3D    SW4D    SW5D    SW6D    
 1997 204     0   175    83      0      0      0     0     0     0    0.19   0.0   0.0   0.00   0.160   0.160   0.160   0.213   0.202   0.217
 1997 205     1   173    81      0      0      1     0     0    45    0.34   0.0   0.0   0.00   0.167   0.154   0.156   0.210   0.200   0.215
 1997 206     2   172    80      0      0      1     0     0    90    0.26   0.0   0.0   0.00   0.154   0.153   0.156   0.210   0.200   0.215
 1997 207     3   172    79      0      0      1     0     0    90    0.20   0.0   0.0   0.00   0.143   0.152   0.156   0.210   0.200   0.215
 1997 208     4   171    78      0      0      1     0     0    90    0.15   0.0   0.0   0.00   0.133   0.151   0.156   0.210   0.200   0.215
 1997 209     5   170    78      0      0      1     0     0    90    0.12   0.0   0.0   0.00   0.123   0.151   0.156   0.209   0.200   0.215
 1997 210     6   176    83      0      0      8     0     0    90    0.39   0.0   0.0   0.00   0.233   0.150   0.156   0.209   0.199   0.215
 1997 211     7   189    97      0      0     23     0     0    90    0.32   0.0   0.0   0.00   0.285   0.239   0.173   0.208   0.198   0.214
 1997 212     8   188    95      0      0     23     0     0    90    0.24   0.0   0.0   0.00   0.257   0.228   0.183   0.207   0.198   0.213
 1997 213     9   186    94      0      0     25     0     0    90    0.40   0.0   0.0   0.00   0.251   0.224   0.183   0.205   0.196   0.212
 1997 214    10   185    93      0      0     25     0     0    90    0.30   0.0   0.0   0.00   0.230   0.223   0.183   0.205   0.196   0.212
 1997 215    11   184    91      0      0     25     0     0    90    0.23   0.0   0.0   0.00   0.212   0.221   0.182   0.205   0.196   0.212
 1997 216    12   183    90      0      0     25     0     0    90    0.18   0.0   0.0   0.00   0.195   0.220   0.182   0.205   0.196   0.212
 1997 217    13   221   129      9      3     79     0     0    89    0.39   0.0   0.0   9.26   0.283   0.266   0.264   0.266   0.235   0.220
 1997 218    14   207   114      9     16     79     0     0    90    0.30   0.0   0.0   0.00   0.257   0.237   0.239   0.241   0.222   0.217
 1997 219    15   201   108      9     19     79     0     0    90    0.23   0.0   0.0   0.00   0.241   0.225   0.228   0.231   0.217   0.216
 1997 220    16   196   103      9     19     79     0     0    90    0.18   0.0   0.0   0.00   0.214   0.214   0.222   0.227   0.214   0.214
 1997 221    17   195   102      9     19     79     0     0    90    0.14   0.0   0.0   0.00   0.197   0.213   0.222   0.227   0.214   0.214
 1997 222    18   193   101      9     19     79     0     0    90    0.10   0.0   0.0   0.00   0.180   0.211   0.221   0.227   0.214   0.214
 1997 223    19   192   100      9     19     79     0     0    90    0.08   0.0   0.0   0.00   0.166   0.208   0.220   0.227   0.214   0.214
 1997 224    20   191    99      9     19     79     0     0    90    0.06   0.0   0.0   0.00   0.152   0.207   0.219   0.227   0.214   0.214
 1997 225    21   190    98      9     19     79     0     0    90    0.05   0.0   0.0   0.00   0.140   0.204   0.218   0.226   0.214   0.214
 1997 226    22   189    97      9     19     79     0     0    90    0.04   0.0   0.0   0.00   0.130   0.202   0.217   0.226   0.214   0.214
 1997 227    23   193   100      9     19     83     0     0    90    0.38   0.0   0.0   0.00   0.205   0.201   0.217   0.226   0.213   0.214
 1997 228    24   191    99      9     19     83     0     0    90    0.29   0.0   0.0   0.00   0.188   0.198   0.215   0.226   0.213   0.214
 1997 229    25   190    98      9     19     83     0     0    90    0.23   0.0   0.0   0.00   0.172   0.196   0.214   0.225   0.213   0.213
 1997 230    26   226   134     21     27    143     0     0    87    0.40   0.0   0.0  11.69   0.278   0.264   0.262   0.265   0.258   0.228
 1997 231    27   205   113     21     43    143     0     0    89    0.30   0.0   0.0   0.00   0.239   0.229   0.233   0.238   0.228   0.219
 1997 232    28   198   106     21     46    143     0     0    90    0.23   0.0   0.0   0.00   0.215   0.219   0.224   0.229   0.218   0.217
 1997 233    29   209   117     21     48    163     0     0    90    0.40   0.0   0.0   0.00   0.265   0.258   0.240   0.237   0.222   0.217
 1997 234    30   200   108     21     53    163     0     0    90    0.30   0.0   0.0   0.00   0.239   0.229   0.227   0.229   0.216   0.216
 1997 235    31   199   106     21     53    163     0     0    90    0.23   0.0   0.0   0.00   0.231   0.225   0.225   0.228   0.215   0.215
 1997 236    32   197   104     21     53    163     0     0    90    0.18   0.0   0.0   0.00   0.210   0.221   0.223   0.227   0.215   0.215
 1997 237    33   204   112     21     53    176     0     0    90    0.39   0.0   0.0   0.00   0.271   0.241   0.230   0.231   0.217   0.217
 1997 238    34   199   107     21     54    176     0     0    90    0.30   0.0   0.0   0.00   0.242   0.223   0.225   0.228   0.214   0.215
 1997 239    35   202   110     21     54    184     0     0    90    0.40   0.0   0.0   0.00   0.276   0.232   0.227   0.229   0.215   0.215
 1997 240    36   199   107     21     55    184     0     0    90    0.31   0.0   0.0   0.00   0.252   0.223   0.225   0.227   0.215   0.215
 1997 241    37   205   113     21     55    196     0     0    90    0.40   0.0   0.0   0.00   0.270   0.247   0.233   0.233   0.218   0.216
 1997 242    38   198   105     21     58    196     0     0    90    0.31   0.0   0.0   0.00   0.236   0.222   0.222   0.226   0.215   0.214
 1997 243    39   195   102     21     58    196     0     0    90    0.24   0.0   0.0   0.00   0.211   0.214   0.218   0.224   0.214   0.214
 1997 244    40   192    99     21     58    196     0     0    90    0.18   0.0   0.0   0.00   0.189   0.207   0.214   0.222   0.213   0.214
 1997 245    41   189    96     21     58    196     0     0    90    0.14   0.0   0.0   0.00   0.169   0.201   0.209   0.221   0.212   0.214
 1997 246    42   187    95     21     58    197     0     0    90    0.30   0.0   0.0   0.00   0.162   0.196   0.207   0.220   0.211   0.214
 1997 247    43   190    98     21     58    203     0     0    90    0.35   0.0   0.0   0.00   0.242   0.195   0.204   0.218   0.210   0.214
 1997 248    44   206   114     21     58    223     0     0    90    0.37   0.0   0.0   0.00   0.278   0.262   0.235   0.231   0.215   0.214
 1997 249    45   200   108     21     60    223     0     0    90    0.29   0.0   0.0   0.00   0.249   0.231   0.225   0.228   0.214   0.215
 1997 250    46   196   103     21     60    223     0     0    90    0.22   0.0   0.0   0.00   0.232   0.218   0.220   0.224   0.212   0.214
 1997 251    47   215   122     21     63    250     0     0    89    0.40   0.0   0.0   0.45   0.275   0.259   0.257   0.247   0.226   0.218
 1997 252    48   224   131     21     68    268     0     0    88    0.34   0.0   0.0   0.00   0.287   0.266   0.262   0.264   0.242   0.225
 1997 253    49   217   124     21     75    271     0     0    88    0.40   0.0   0.0   0.00   0.283   0.241   0.244   0.252   0.240   0.227
 1997 254    50   203   111     21     85    271     0     0    89    0.31   0.0   0.0   0.00   0.251   0.223   0.228   0.234   0.222   0.219
 1997 255    51   197   105     21     86    271     0     0    90    0.23   0.0   0.0   0.00   0.231   0.210   0.219   0.226   0.215   0.218
 1997 256    52   222   129     25     91    310     0     0    88    0.41   0.0   0.0   3.27   0.278   0.259   0.258   0.264   0.241   0.225
 1997 257    53   205   112     25    105    310     0     0    90    0.31   0.0   0.0   0.00   0.249   0.228   0.232   0.238   0.223   0.218
 1997 258    54   205   113     25    107    318     0     0    89    0.41   0.0   0.0   0.00   0.279   0.232   0.229   0.234   0.221   0.218
 1997 259    55   199   106     25    109    318     0     0    90    0.32   0.0   0.0   0.00   0.246   0.217   0.221   0.227   0.215   0.217
 1997 260    56   209   116     25    110    335     0     0    90    0.42   0.0   0.0   0.00   0.280   0.260   0.237   0.235   0.219   0.217
 1997 261    57   220   127     25    113    351     0     0    89    0.37   0.0   0.0   0.00   0.292   0.268   0.260   0.252   0.232   0.222
 1997 262    58   204   111     25    125    351     0     0    90    0.28   0.0   0.0   0.00   0.255   0.231   0.232   0.234   0.219   0.217
 1997 263    59   199   106     25    127    351     0     0    90    0.22   0.0   0.0   0.00   0.242   0.219   0.223   0.227   0.215   0.216
 1997 264    60   193   100     25    127    351     0     0    90    0.16   0.0   0.0   0.00   0.219   0.203   0.213   0.222   0.211   0.215
 1997 265    61   210   118     25    128    375     0     0    90    0.41   0.0   0.0   0.05   0.281   0.260   0.243   0.238   0.220   0.217
 1997 266    62   203   110     25    134    375     0     0    90    0.34   0.0   0.0   0.00   0.259   0.234   0.230   0.231   0.216   0.217
 1997 267    63   202   110     25    134    380     0     0    90    0.39   0.0   0.0   0.00   0.281   0.227   0.226   0.229   0.216   0.216
 1997 268    64   200   107     25    135    380     0     0    90    0.31   0.0   0.0   0.00   0.258   0.222   0.224   0.228   0.215   0.216
 1997 269    65   196   103     25    135    380     0     0    90    0.23   0.0   0.0   0.00   0.244   0.212   0.217   0.224   0.212   0.215
 1997 270    66   227   135     42    148    448     0     0    85    0.42   0.0   0.0  16.99   0.277   0.257   0.256   0.263   0.256   0.238
 1997 271    67   204   112     42    164    448     0     0    89    0.32   0.0   0.0   0.00   0.243   0.222   0.227   0.235   0.226   0.222
 1997 272    68   201   108     42    167    452     0     0    89    0.43   0.0   0.0   0.00   0.265   0.218   0.220   0.228   0.218   0.219
 1997 273    69   196   103     42    167    452     0     0    90    0.33   0.0   0.0   0.00   0.244   0.208   0.212   0.223   0.215   0.216
 1997 274    70   190    98     42    167    452     0     0    90    0.25   0.0   0.0   0.00   0.227   0.195   0.203   0.219   0.212   0.215
 1997 275    71   205   113     42    167    473     0     0    90    0.43   0.0   0.0   0.00   0.278   0.257   0.230   0.228   0.214   0.216
 1997 276    72   200   107     42    169    473     0     0    90    0.32   0.0   0.0   0.00   0.253   0.228   0.224   0.226   0.214   0.215
 1997 277    73   195   103     42    169    473     0     0    90    0.24   0.0   0.0   0.00   0.238   0.217   0.216   0.222   0.211   0.215
 1997 278    74   225   133     46    175    515     0     0    88    0.44   0.0   0.0   4.01   0.292   0.268   0.263   0.267   0.245   0.225
 1997 279    75   223   130     46    183    525     0     0    87    0.37   0.0   0.0   0.00   0.281   0.259   0.254   0.260   0.246   0.229
 1997 280    76   204   111     46    197    525     0     0    89    0.28   0.0   0.0   0.00   0.249   0.225   0.228   0.235   0.223   0.220
 1997 281    77   202   109     46    198    527     0     0    89    0.45   0.0   0.0   0.00   0.260   0.223   0.226   0.229   0.219   0.218
 1997 282    78   198   105     46    198    527     0     0    90    0.34   0.0   0.0   0.00   0.245   0.212   0.218   0.225   0.216   0.217
 1997 283    79   193   101     46    198    527     0     0    90    0.25   0.0   0.0   0.00   0.230   0.199   0.210   0.221   0.213   0.217
 1997 284    80   188    96     46    198    527     0     0    90    0.19   0.0   0.0   0.00   0.214   0.186   0.201   0.217   0.210   0.216
 1997 285    81   184    91     46    198    527     0     0    90    0.14   0.0   0.0   0.00   0.190   0.176   0.194   0.213   0.207   0.215
 1997 286    82   179    86     46    198    527     0     0    90    0.10   0.0   0.0   0.00   0.164   0.163   0.186   0.209   0.204   0.215
 1997 287    83   176    83     46    198    528     0     0    90    0.20   0.0   0.0   0.00   0.153   0.155   0.180   0.207   0.203   0.214
 1997 288    84   189    97     46    198    546     0     0    90    0.41   0.0   0.0   0.00   0.272   0.227   0.188   0.202   0.200   0.214
 1997 289    85   183    91     46    198    546     0     0    90    0.30   0.0   0.0   0.00   0.242   0.211   0.181   0.197   0.196   0.213
 1997 290    86   180    88     46    198    546     0     0    90    0.23   0.0   0.0   0.00   0.227   0.204   0.176   0.195   0.194   0.212
 1997 291    87   197   104     46    198    566     0     0    90    0.46   0.0   0.0   0.00   0.288   0.264   0.226   0.199   0.192   0.212
 1997 292    88   194   101     46    198    566     0     0    90    0.37   0.0   0.0   0.00   0.258   0.232   0.223   0.217   0.190   0.211
 1997 293    89   191    98     46    198    566     0     0    90    0.28   0.0   0.0   0.00   0.248   0.221   0.219   0.214   0.188   0.211
 1997 294    90   188    96     46    198    566     0     0    90    0.21   0.0   0.0   0.00   0.233   0.213   0.214   0.212   0.187   0.210
 1997 295    91   183    90     46    198    566     0     0    90    0.15   0.0   0.0   0.00   0.207   0.201   0.206   0.208   0.184   0.210
 1997 296    92   177    85     46    198    566     0     0    90    0.11   0.0   0.0   0.00   0.176   0.186   0.196   0.203   0.180   0.209
 1997 297    93   182    90     46    198    577     0     0    90    0.47   0.0   0.0   0.00   0.272   0.215   0.189   0.199   0.178   0.209
 1997 298    94   178    85     46    198    577     0     0    90    0.34   0.0   0.0   0.00   0.245   0.207   0.180   0.194   0.176   0.208
 1997 299    95   180    87     46    198    585     0     0    90    0.49   0.0   0.0   0.00   0.279   0.221   0.182   0.189   0.173   0.207
 1997 300    96   175    82     46    198    585     0     0    90    0.36   0.0   0.0   0.00   0.248   0.214   0.174   0.184   0.172   0.206
 1997 301    97   173    81     46    198    589     0     0    90    0.50   0.0   0.0   0.00   0.265   0.214   0.166   0.179   0.170   0.205
 1997 302    98   168    75     46    198    589     0     0    90    0.36   0.0   0.0   0.00   0.240   0.201   0.156   0.174   0.168   0.204
 1997 303    99   163    70     46    198    589     0     0    90    0.26   0.0   0.0   0.00   0.212   0.187   0.146   0.169   0.167   0.203
 1997 304   100   159    66     46    198    589     0     0    90    0.19   0.0   0.0   0.00   0.192   0.177   0.140   0.166   0.167   0.203
 1997 305   101   153    61     46    198    589     0     0    90    0.14   0.0   0.0   0.00   0.163   0.162   0.130   0.161   0.166   0.202
 1997 306   102   150    57     46    198    589     0     0    90    0.10   0.0   0.0   0.00   0.142   0.151   0.123   0.158   0.165   0.201
 1997 307   103   144    51     46    198    589     0     0    90    0.07   0.0   0.0   0.00   0.124   0.132   0.110   0.154   0.164   0.201
 1997 308   104   138    45     46    198    589     0     0    90    0.05   0.0   0.0   0.00   0.113   0.108   0.097   0.151   0.163   0.199
 1997 309   105   133    40     46    198    589     0     0    90    0.04   0.0   0.0   0.00   0.105   0.082   0.092   0.148   0.161   0.198
 1997 310   106   131    38     46    198    589     0     0    90    0.03   0.0   0.0   0.00   0.097   0.080   0.088   0.145   0.160   0.196
 1997 311   107   129    36     46    198    589     0     0    90    0.02   0.0   0.0   0.00   0.091   0.079   0.086   0.143   0.159   0.194
 1997 312   108   128    35     46    198    590     0     0    90    0.18   0.0   0.0   0.00   0.092   0.077   0.084   0.141   0.158   0.193
 1997 313   109   126    34     46    198    590     0     0    90    0.13   0.0   0.0   0.00   0.086   0.076   0.083   0.139   0.157   0.191
 1997 314   110   125    32     46    198    590     0     0    90    0.09   0.0   0.0   0.00   0.081   0.075   0.082   0.138   0.156   0.190
 1997 315   111   124    31     46    198    590     0     0    90    0.07   0.0   0.0   0.00   0.076   0.074   0.081   0.137   0.155   0.189
 1997 316   112   123    30     46    198    590     0     0    90    0.05   0.0   0.0   0.00   0.072   0.073   0.080   0.136   0.154   0.188
 1997 317   113   122    29     46    198    590     0     0    90    0.04   0.0   0.0   0.00   0.068   0.072   0.079   0.135   0.153   0.187
 1997 318   114   121    29     46    198    590     0     0    90    0.04   0.0   0.0   0.00   0.064   0.071   0.078   0.134   0.153   0.187
 1997 319   115   120    28     46    198    590     0     0    90    0.03   0.0   0.0   0.00   0.061   0.070   0.077   0.133   0.152   0.186
 1997 320   116   120    27     46    198    590     0     0    90    0.03   0.0   0.0   0.00   0.058   0.070   0.077   0.133   0.151   0.185
 1997 321   117   119    26     46    198    590     0     0    90    0.02   0.0   0.0   0.00   0.055   0.069   0.076   0.132   0.151   0.184
 1997 322   118   118    26     46    198    590     0     0    90    0.02   0.0   0.0   0.00   0.053   0.068   0.075   0.132   0.150   0.184
 1997 323   119   118    25     46    198    590     0     0    90    0.02   0.0   0.0   0.00   0.051   0.068   0.075   0.131   0.150   0.183
 1997 324   120   117    25     46    198    590     0     0    90    0.02   0.0   0.0   0.00   0.049   0.067   0.074   0.130   0.149   0.183
