*SOIL ORGANIC N BALANCE

*DSSAT Cropping System Model Ver. 4.5.1.023 -Stub         NOV 08, 2014; 00:45:26
                                                                                
*RUN   1        : 97 DATE1 CHINESE          CRGRO045 GHNY9701    1              
 MODEL          : CRGRO045 - Peanut                                             
 EXPERIMENT     : GHNY9701 PN 1997 VARIETY X PLANTING DATE EXPERIMENT           
 DATA PATH      :                                                               
 TREATMENT  1   : 97 DATE1 CHINESE          CRGRO045                            
  
 1997 147     0   3709.95   0.750   5.300   0.000   0.000   0.000   0.000     0.000     0.000


!                                        INITIAL Year/Doy      FINAL Year/Doy
!                                                1997/148            1997/249
!SOIL N BALANCE                                 -----------kg N/ha-----------

!   Soil Humus N                                  3709.95             3687.30
!   Soil Litter N                                    0.75                1.22
!   N in Surface Residue                             5.30                9.07

!   Added to / Removed from Soil:
!   N in Harvest Residues from Previous Crop         0.00
!   N from Organic Applications                      0.00
!   N from senesced plant matter                     5.91
!   N immobilized                                    0.00
!   N mineralized                                                       24.27

!   Total N balance                               3721.86             3721.86
!   Balance                                                             0.000

!===============================================================================

*DSSAT Cropping System Model Ver. 4.5.1.023 -Stub         NOV 08, 2014; 00:45:26
                                                                                
*RUN   2        : 97 DATE1 F-MIX            CRGRO045 GHNY9701    2              
 MODEL          : CRGRO045 - Peanut                                             
 EXPERIMENT     : GHNY9701 PN 1997 VARIETY X PLANTING DATE EXPERIMENT           
 DATA PATH      :                                                               
 TREATMENT  2   : 97 DATE1 F-MIX            CRGRO045                            
  
 1997 147     0   3709.95   0.750   5.300   0.000   0.000   0.000   0.000     0.000     0.000


!                                        INITIAL Year/Doy      FINAL Year/Doy
!                                                1997/148            1997/270
!SOIL N BALANCE                                 -----------kg N/ha-----------

!   Soil Humus N                                  3709.95             3682.58
!   Soil Litter N                                    0.75                1.73
!   N in Surface Residue                             5.30               12.70

!   Added to / Removed from Soil:
!   N in Harvest Residues from Previous Crop         0.00
!   N from Organic Applications                      0.00
!   N from senesced plant matter                    11.35
!   N immobilized                                    0.00
!   N mineralized                                                       30.23

!   Total N balance                               3727.25             3727.25
!   Balance                                                            -0.001

!===============================================================================

*DSSAT Cropping System Model Ver. 4.5.1.023 -Stub         NOV 08, 2014; 00:45:26
                                                                                
*RUN   3        : 97 DATE2 CHINESE          CRGRO045 GHNY9701    3              
 MODEL          : CRGRO045 - Peanut                                             
 EXPERIMENT     : GHNY9701 PN 1997 VARIETY X PLANTING DATE EXPERIMENT           
 DATA PATH      :                                                               
 TREATMENT  3   : 97 DATE2 CHINESE          CRGRO045                            
  
 1997 175     0   3709.95   0.750   5.300   0.000   0.000   0.000   0.000     0.000     0.000


!                                        INITIAL Year/Doy      FINAL Year/Doy
!                                                1997/176            1997/277
!SOIL N BALANCE                                 -----------kg N/ha-----------

!   Soil Humus N                                  3709.95             3686.38
!   Soil Litter N                                    0.75                1.21
!   N in Surface Residue                             5.30                9.69

!   Added to / Removed from Soil:
!   N in Harvest Residues from Previous Crop         0.00
!   N from Organic Applications                      0.00
!   N from senesced plant matter                     6.70
!   N immobilized                                    0.00
!   N mineralized                                                       25.36

!   Total N balance                               3722.63             3722.63
!   Balance                                                             0.000

!===============================================================================

*DSSAT Cropping System Model Ver. 4.5.1.023 -Stub         NOV 08, 2014; 00:45:26
                                                                                
*RUN   4        : 97 DATE2 F-MIX            CRGRO045 GHNY9701    4              
 MODEL          : CRGRO045 - Peanut                                             
 EXPERIMENT     : GHNY9701 PN 1997 VARIETY X PLANTING DATE EXPERIMENT           
 DATA PATH      :                                                               
 TREATMENT  4   : 97 DATE2 F-MIX            CRGRO045                            
  
 1997 175     0   3709.95   0.750   5.300   0.000   0.000   0.000   0.000     0.000     0.000


!                                        INITIAL Year/Doy      FINAL Year/Doy
!                                                1997/176            1997/298
!SOIL N BALANCE                                 -----------kg N/ha-----------

!   Soil Humus N                                  3709.95             3681.44
!   Soil Litter N                                    0.75                1.68
!   N in Surface Residue                             5.30               12.94

!   Added to / Removed from Soil:
!   N in Harvest Residues from Previous Crop         0.00
!   N from Organic Applications                      0.00
!   N from senesced plant matter                    11.54
!   N immobilized                                    0.00
!   N mineralized                                                       31.39

!   Total N balance                               3727.45             3727.45
!   Balance                                                             0.000

!===============================================================================

*DSSAT Cropping System Model Ver. 4.5.1.023 -Stub         NOV 08, 2014; 00:45:26
                                                                                
*RUN   5        : 97 DATE3 CHINESE          CRGRO045 GHNY9701    5              
 MODEL          : CRGRO045 - Peanut                                             
 EXPERIMENT     : GHNY9701 PN 1997 VARIETY X PLANTING DATE EXPERIMENT           
 DATA PATH      :                                                               
 TREATMENT  5   : 97 DATE3 CHINESE          CRGRO045                            
  
 1997 203     0   3709.95   0.750   5.300   0.000   0.000   0.000   0.000     0.000     0.000


!                                        INITIAL Year/Doy      FINAL Year/Doy
!                                                1997/204            1997/305
!SOIL N BALANCE                                 -----------kg N/ha-----------

!   Soil Humus N                                  3709.95             3685.83
!   Soil Litter N                                    0.75                1.18
!   N in Surface Residue                             5.30                9.56

!   Added to / Removed from Soil:
!   N in Harvest Residues from Previous Crop         0.00
!   N from Organic Applications                      0.00
!   N from senesced plant matter                     6.45
!   N immobilized                                    0.00
!   N mineralized                                                       25.81

!   Total N balance                               3722.39             3722.39
!   Balance                                                             0.000

!===============================================================================

*DSSAT Cropping System Model Ver. 4.5.1.023 -Stub         NOV 08, 2014; 00:45:26
                                                                                
*RUN   6        : 97 DATE3 F-MIX            CRGRO045 GHNY9701    6              
 MODEL          : CRGRO045 - Peanut                                             
 EXPERIMENT     : GHNY9701 PN 1997 VARIETY X PLANTING DATE EXPERIMENT           
 DATA PATH      :                                                               
 TREATMENT  6   : 97 DATE3 F-MIX            CRGRO045                            
  
 1997 203     0   3709.95   0.750   5.300   0.000   0.000   0.000   0.000     0.000     0.000


!                                        INITIAL Year/Doy      FINAL Year/Doy
!                                                1997/204            1997/324
!SOIL N BALANCE                                 -----------kg N/ha-----------

!   Soil Humus N                                  3709.95             3683.14
!   Soil Litter N                                    0.75                4.43
!   N in Surface Residue                             5.30               21.08

!   Added to / Removed from Soil:
!   N in Harvest Residues from Previous Crop         0.00
!   N from Organic Applications                      0.00
!   N from senesced plant matter                    23.00
!   N immobilized                                    0.00
!   N mineralized                                                       29.30

!   Total N balance                               3737.95             3737.95
!   Balance                                                             0.000
