
*SOIL N BALANCE - CENTURY ROUTINES

*DSSAT Cropping System Model Ver. 4.5.1.023 -Stub         OCT 13, 2014; 10:48:17

!                     |------------------- N State Variables -------------------| |------------ N Additions ------------| |---------- N Subtractions -----------| |-Mineralization--|
!                                                                                   Harvest   Applied                                  Denit-             Ammonia    Miner-    Immob-  Seasonal
!                       Surface      SOM1      SOM2      SOM3    Litter     Inorg   Residue   Residue  Fertiliz   Senesed   Leached    rified    Uptake  Volatil.    alized    ilized   Balance
@Run FILEX         TN      SN0D     S1NTD     S2NTD     S3NTD      LNTD      NIAD      HRNH     RESNC      NICM     SNNTC      NLCM      NDNC      NUCM      AMLS      NMNC      NIMC   SEASBAL
   1 GHNY9701.PNX INIT     5.30      0.00   3709.95      0.00      0.75      0.27
   1 GHNY9701.PNX   1      5.30      0.00   3687.77      0.00      1.29     11.66      0.00      0.00      0.00      6.10      2.31      0.01     10.15      0.00     23.87      0.00      0.00
   2 GHNY9701.PNX   2      5.30      0.00   3682.79      0.00      1.73     11.07      0.00      0.00      0.00     11.34      5.57      0.07     13.59      0.00     30.02      0.00      0.00
   3 GHNY9701.PNX   3      5.30      0.00   3686.55      0.00      1.21     11.08      0.00      0.00      0.00      6.70      6.12      0.00      8.26      0.00     25.19      0.00      0.00
   4 GHNY9701.PNX   4      5.30      0.00   3681.61      0.00      1.68     11.17      0.00      0.00      0.00     11.54      7.12      0.00     13.20      0.00     31.22      0.00      0.00
   5 GHNY9701.PNX   5      5.30      0.00   3686.08      0.00      1.19     12.04      0.00      0.00      0.00      6.45      5.59      0.00      8.21      0.00     25.56      0.00      0.00
   6 GHNY9701.PNX   6      5.30      0.00   3683.38      0.00      4.44     13.94      0.00      0.00      0.00     23.01      5.54      0.00      9.83      0.00     29.05      0.00      0.00
