
*SOIL N BALANCE - CENTURY ROUTINES

*DSSAT Cropping System Model Ver. 4.5.1.023 -Stub         NOV 08, 2014; 00:45:26

!                     |------------------- N State Variables -------------------| |------------ N Additions ------------| |---------- N Subtractions -----------| |-Mineralization--|
!                                                                                   Harvest   Applied                                  Denit-             Ammonia    Miner-    Immob-  Seasonal
!                       Surface      SOM1      SOM2      SOM3    Litter     Inorg   Residue   Residue  Fertiliz   Senesed   Leached    rified    Uptake  Volatil.    alized    ilized   Balance
@Run FILEX         TN      SN0D     S1NTD     S2NTD     S3NTD      LNTD      NIAD      HRNH     RESNC      NICM     SNNTC      NLCM      NDNC      NUCM      AMLS      NMNC      NIMC   SEASBAL
   1 GHNY9701.PNX INIT     5.30      0.00   3709.95      0.00      0.75      0.27
   1 GHNY9701.PNX   1      5.30      0.00   3687.30      0.00      1.22     11.70      0.00      0.00      0.00      5.91      2.39      0.02     10.43      0.00     24.27      0.00      0.00
   2 GHNY9701.PNX   2      5.30      0.00   3682.58      0.00      1.73     11.04      0.00      0.00      0.00     11.35      5.63      0.07     13.77      0.00     30.23      0.00      0.00
   3 GHNY9701.PNX   3      5.30      0.00   3686.38      0.00      1.21     11.09      0.00      0.00      0.00      6.70      6.21      0.00      8.33      0.00     25.36      0.00      0.00
   4 GHNY9701.PNX   4      5.30      0.00   3681.44      0.00      1.68     11.17      0.00      0.00      0.00     11.54      7.20      0.00     13.29      0.00     31.39      0.00      0.00
   5 GHNY9701.PNX   5      5.30      0.00   3685.83      0.00      1.18     12.04      0.00      0.00      0.00      6.45      5.72      0.00      8.32      0.00     25.81      0.00      0.00
   6 GHNY9701.PNX   6      5.30      0.00   3683.14      0.00      4.43     13.96      0.00      0.00      0.00     23.00      5.67      0.00      9.94      0.00     29.30      0.00      0.00
