*SOIL-PLANT-ATMOSPHERE MODULE OUTPUT FILE

*DSSAT Cropping System Model Ver. 4.5.1.023 -Stub         NOV 07, 2014; 01:44:25
                                                                                
*RUN   1        : N0 P0                     MZCER045 GHWA0401    1              
 MODEL          : MZCER045 - Maize                                              
 EXPERIMENT     : GHWA0401 MZ ON-STATION NXP (EXPERIMENT NO.2) 9 TRT            
 DATA PATH      :                                                               
 TREATMENT  1   : N0 P0                     MZCER045                            
  
!                                                                                                                                                Soil evaporation (mm/d) by soil depth (cm):
!                                                                                                                                                0-5    5-15   15-20   20-30   30-40   40-50   50-60   60-90
@YEAR DOY   DAS   SRAA  TMAXA  TMINA   EOAA   EOPA   EOSA   ETAA   EPAA   ESAA   EFAA   EMAA    EOAC    ETAC    EPAC    ESAC    EFAC    EMAC    ES1D    ES2D    ES3D    ES4D    ES5D    ES6D    ES7D    ES8D    
 2003 283     1  23.30  34.50  23.90  6.009  0.000  6.009  0.716  0.000  0.634  0.000  0.082    6.01    0.72    0.00    0.63    0.00    0.08   0.531   0.066   0.011   0.013   0.007   0.003   0.002   0.001
 2003 284     2  24.30  34.60  24.00  6.279  0.000  6.279  0.666  0.000  0.610  0.000  0.055   12.29    1.38    0.00    1.24    0.00    0.14   0.507   0.065   0.011   0.013   0.007   0.003   0.002   0.001
 2003 285     3  20.10  35.00  24.20  5.239  0.000  5.239  3.488  0.000  3.366  0.000  0.122   17.53    4.87    0.00    4.61    0.00    0.26   1.041   0.686   0.233   0.423   0.333   0.243   0.209   0.199
 2003 286     4  25.00  33.40  23.60  6.525  0.000  6.525  3.491  0.000  3.366  0.000  0.125   24.05    8.36    0.00    7.98    0.00    0.38   1.024   0.702   0.243   0.422   0.331   0.243   0.206   0.196
 2003 287     5  24.70  33.50  24.00  6.405  0.000  6.405  3.643  0.000  3.528  0.000  0.116   30.46   12.00    0.00   11.50    0.00    0.50   1.156   0.719   0.254   0.427   0.332   0.242   0.205   0.194
 2003 288     6  20.20  32.80  22.40  5.261  0.000  5.261  4.159  0.000  4.027  0.000  0.132   35.72   16.16    0.00   15.53    0.00    0.63   1.343   0.876   0.303   0.483   0.379   0.236   0.203   0.205
 2003 289     7  12.00  27.20  23.00  2.987  0.000  2.987  2.377  0.000  2.258  0.000  0.119   38.71   18.54    0.00   17.79    0.00    0.75   0.725   0.471   0.188   0.284   0.227   0.130   0.113   0.122
 2003 290     8  17.60  30.50  22.00  4.521  0.000  4.521  3.618  0.000  3.497  0.000  0.121   43.23   22.16    0.00   21.29    0.00    0.87   1.166   0.697   0.294   0.425   0.343   0.204   0.177   0.191
 2003 291     9  24.90  32.80  23.00  6.622  0.000  6.622  4.075  0.000  3.963  0.000  0.112   49.85   26.23    0.00   25.25    0.00    0.98   1.154   0.797   0.336   0.518   0.420   0.263   0.229   0.247
 2003 292    10  25.60  34.00  23.50  6.778  0.000  6.778  3.524  0.000  3.419  0.000  0.105   56.63   29.76    0.00   28.67    0.00    1.09   0.930   0.705   0.266   0.453   0.363   0.248   0.216   0.238
 2003 293    11  25.60  34.20  24.50  6.786  0.000  6.786  3.246  0.000  3.170  0.000  0.077   63.41   33.00    0.00   31.84    0.00    1.16   0.803   0.669   0.239   0.428   0.341   0.244   0.213   0.235
 2003 294    12  26.10  34.30  24.50  6.900  0.000  6.900  3.044  0.000  2.987  0.000  0.056   70.31   36.05    0.00   34.83    0.00    1.22   0.693   0.634   0.230   0.416   0.333   0.239   0.209   0.232
 2003 295    13  25.50  34.70  24.40  6.742  0.000  6.742  0.513  0.000  0.471  0.000  0.042   77.05   36.56    0.00   35.30    0.00    1.26   0.372   0.061   0.011   0.013   0.007   0.003   0.002   0.002
 2003 296    14  25.10  35.50  25.00  6.860  0.000  6.860  3.239  0.000  3.208  0.000  0.031   83.91   39.80    0.00   38.51    0.00    1.29   0.913   0.655   0.232   0.413   0.326   0.235   0.206   0.229
 2003 297    15  24.70  36.00  23.50  7.098  0.000  7.098  3.566  0.000  3.473  0.000  0.093   91.01   43.37    0.00   41.98    0.00    1.39   1.134   0.698   0.241   0.417   0.323   0.231   0.203   0.226
 2003 298    16  26.00  33.70  23.90  6.953  0.000  6.953  3.301  0.000  3.228  0.000  0.074   97.96   46.67    0.00   45.21    0.00    1.46   0.923   0.682   0.232   0.416   0.324   0.227   0.200   0.223
 2003 299    17  20.20  32.80  23.00  5.281  0.000  5.281  0.655  0.000  0.599  0.000  0.055  103.25   47.32    0.00   45.80    0.00    1.52   0.496   0.066   0.011   0.013   0.007   0.003   0.002   0.001
 2003 300    18  17.70  33.20  23.00  4.639  0.000  4.639  0.598  0.000  0.557  0.000  0.042  107.88   47.92    0.00   46.36    0.00    1.56   0.454   0.065   0.011   0.013   0.007   0.003   0.002   0.001
 2003 301    19  22.60  33.40  23.50  5.946  0.000  5.946  0.549  0.000  0.517  0.000  0.032  113.83   48.47    0.00   46.88    0.00    1.59   0.415   0.065   0.011   0.013   0.007   0.003   0.002   0.001
 2003 302    20  24.80  35.30  23.90  6.750  0.000  6.750  0.506  0.000  0.482  0.000  0.025  120.58   48.98    0.00   47.36    0.00    1.62   0.380   0.065   0.011   0.013   0.007   0.003   0.002   0.001
 2003 303    21  24.60  35.40  24.60  6.753  0.000  6.753  3.087  0.000  3.068  0.000  0.019  127.33   52.06    0.00   50.43    0.00    1.63   0.811   0.661   0.227   0.409   0.321   0.222   0.196   0.220
 2003 304    22  19.90  32.00  21.70  5.195  0.000  5.195  3.214  0.000  3.143  0.000  0.072  132.53   55.28    0.00   53.57    0.00    1.71   0.913   0.661   0.224   0.401   0.314   0.218   0.193   0.217
 2003 305    23  22.60  34.00  24.20  6.084  0.000  6.084  0.647  0.000  0.591  0.000  0.056  138.61   55.92    0.00   54.16    0.00    1.76   0.491   0.064   0.011   0.012   0.006   0.003   0.002   0.001
 2003 306    24  24.20  34.00  23.20  6.458  0.000  6.458  0.592  0.000  0.549  0.000  0.043  145.07   56.52    0.00   54.71    0.00    1.81   0.449   0.064   0.011   0.012   0.006   0.003   0.002   0.001
 2003 307    25  23.50  34.50  23.00  6.282  0.000  6.282  0.544  0.000  0.510  0.000  0.034  151.35   57.06    0.00   55.22    0.00    1.84   0.411   0.064   0.010   0.012   0.006   0.003   0.002   0.001
 2003 308    26  21.40  32.80  23.50  5.630  0.000  5.630  0.502  0.000  0.475  0.000  0.027  156.98   57.56    0.00   55.70    0.00    1.87   0.376   0.063   0.010   0.012   0.006   0.003   0.002   0.001
 2003 309    27  23.00  35.60  23.10  6.367  0.000  6.367  0.464  0.000  0.442  0.000  0.021  163.35   58.03    0.00   56.14    0.00    1.89   0.344   0.063   0.010   0.012   0.006   0.003   0.002   0.001
 2003 310    28  18.80  34.70  23.80  5.035  0.000  5.035  3.348  0.000  3.331  0.000  0.017  168.38   61.37    0.00   59.47    0.00    1.90   1.055   0.700   0.240   0.407   0.311   0.214   0.190   0.214
 2003 311    29  16.50  32.00  21.20  4.451  0.000  4.451  3.827  0.000  3.769  0.000  0.058  172.83   65.20    0.00   63.24    0.00    1.96   1.446   0.756   0.270   0.411   0.306   0.204   0.176   0.200
 2003 312    30  14.90  31.50  21.80  4.009  0.000  4.009  3.455  0.000  3.407  0.000  0.048  176.84   68.66    0.00   66.64    0.00    2.01   1.074   0.724   0.280   0.425   0.320   0.216   0.172   0.195
 2003 313    31  15.50  32.80  24.00  4.205  0.000  4.205  3.366  0.000  3.310  0.000  0.056  181.05   72.02    0.00   69.95    0.00    2.07   0.934   0.699   0.253   0.433   0.337   0.242   0.195   0.218
 2003 314    32  22.10  34.10  24.10  6.022  0.000  6.022  3.171  0.000  3.126  0.000  0.045  187.07   75.19    0.00   73.08    0.00    2.11   0.806   0.662   0.234   0.421   0.331   0.239   0.206   0.227
 2003 315    33  22.60  34.30  24.60  6.161  0.000  6.161  0.571  0.000  0.535  0.000  0.036  193.23   75.76    0.00   73.61    0.00    2.15   0.433   0.064   0.011   0.013   0.007   0.003   0.002   0.001
 2003 316    34  23.50  34.70  25.00  6.435  0.000  6.435  0.527  0.000  0.497  0.000  0.029  199.67   76.29    0.00   74.11    0.00    2.18   0.396   0.063   0.011   0.013   0.007   0.003   0.002   0.001
 2003 317    35  23.10  35.00  24.00  6.288  0.000  6.288  0.487  0.000  0.463  0.000  0.024  205.95   76.78    0.00   74.58    0.00    2.20   0.362   0.063   0.011   0.013   0.007   0.003   0.002   0.001
 2003 318    36  24.00  34.80  23.00  6.462  0.000  6.462  0.451  0.000  0.432  0.000  0.020  212.42   77.23    0.00   75.01    0.00    2.22   0.332   0.063   0.011   0.013   0.007   0.003   0.002   0.001
 2003 319    37  23.90  35.10  23.00  6.471  0.000  6.471  0.419  0.000  0.403  0.000  0.016  218.89   77.65    0.00   75.41    0.00    2.24   0.303   0.062   0.011   0.013   0.007   0.003   0.002   0.001
 2003 320    38  23.40  35.80  22.00  6.527  0.000  6.527  0.390  0.000  0.377  0.000  0.013  225.41   78.04    0.00   75.79    0.00    2.25   0.277   0.062   0.011   0.013   0.007   0.003   0.002   0.001
 2003 321    39  22.10  35.20  24.20  6.044  0.000  6.044  0.364  0.000  0.353  0.000  0.011  231.46   78.40    0.00   76.14    0.00    2.26   0.254   0.062   0.011   0.013   0.007   0.003   0.002   0.001
 2003 322    40  23.40  35.50  24.00  6.487  0.000  6.487  0.340  0.000  0.331  0.000  0.009  237.94   78.74    0.00   76.47    0.00    2.27   0.232   0.061   0.011   0.013   0.007   0.003   0.002   0.001
 2003 323    41  23.80  36.20  24.00  6.840  0.000  6.840  0.318  0.000  0.311  0.000  0.007  244.78   79.06    0.00   76.78    0.00    2.28   0.212   0.061   0.011   0.013   0.007   0.003   0.002   0.001
 2003 324    42  23.50  35.80  23.50  6.579  0.000  6.579  0.299  0.000  0.292  0.000  0.006  251.36   79.36    0.00   77.07    0.00    2.28   0.194   0.061   0.011   0.013   0.007   0.003   0.002   0.001
 2003 325    43  22.10  36.20  23.40  6.309  0.000  6.309  0.281  0.000  0.276  0.000  0.005  257.67   79.64    0.00   77.35    0.00    2.29   0.178   0.060   0.011   0.013   0.007   0.003   0.002   0.001
 2003 326    44  23.10  36.00  22.20  6.464  0.000  6.464  0.264  0.000  0.260  0.000  0.004  264.14   79.90    0.00   77.61    0.00    2.29   0.163   0.060   0.011   0.013   0.007   0.003   0.002   0.001
 2003 327    45  23.70  35.20  21.20  6.299  0.000  6.299  0.249  0.000  0.246  0.000  0.003  270.44   80.15    0.00   77.86    0.00    2.30   0.149   0.060   0.011   0.013   0.007   0.003   0.002   0.001
 2003 328    46  22.00  35.60  20.60  5.945  0.000  5.945  0.236  0.000  0.233  0.000  0.003  276.38   80.39    0.00   78.09    0.00    2.30   0.136   0.059   0.011   0.013   0.007   0.003   0.002   0.001
 2003 329    47  23.40  36.80  23.00  6.843  0.000  6.843  0.223  0.000  0.221  0.000  0.002  283.22   80.61    0.00   78.31    0.00    2.30   0.124   0.059   0.011   0.013   0.007   0.003   0.002   0.001
 2003 330    48  24.30  36.80  21.00  7.005  0.000  7.005  0.212  0.000  0.210  0.000  0.002  290.23   80.82    0.00   78.52    0.00    2.30   0.114   0.059   0.011   0.013   0.007   0.003   0.002   0.001
 2003 331    49  22.80  34.70  22.20  5.991  0.000  5.991  0.202  0.000  0.200  0.000  0.002  296.22   81.03    0.00   78.72    0.00    2.31   0.104   0.059   0.011   0.013   0.007   0.003   0.002   0.001
 2003 332    50  24.10  35.80  21.50  6.600  0.000  6.600  0.192  0.000  0.191  0.000  0.001  302.82   81.22    0.00   78.91    0.00    2.31   0.095   0.058   0.011   0.013   0.007   0.003   0.002   0.001
 2003 333    51  23.50  36.50  20.00  6.608  0.000  6.608  0.183  0.000  0.182  0.000  0.001  309.43   81.40    0.00   79.09    0.00    2.31   0.087   0.058   0.011   0.013   0.007   0.003   0.002   0.001
 2003 334    52  23.90  36.50  19.50  6.693  0.000  6.693  0.175  0.000  0.174  0.000  0.001  316.12   81.58    0.00   79.27    0.00    2.31   0.080   0.058   0.011   0.013   0.007   0.003   0.002   0.001
 2003 335    53  23.80  36.20  19.50  6.556  0.000  6.556  0.168  0.000  0.167  0.000  0.001  322.68   81.74    0.00   79.43    0.00    2.31   0.073   0.057   0.011   0.013   0.007   0.003   0.002   0.001
 2003 336    54  22.50  35.20  22.60  5.992  0.000  5.992  0.161  0.000  0.161  0.000  0.001  328.67   81.91    0.00   79.60    0.00    2.31   0.067   0.057   0.011   0.013   0.007   0.003   0.002   0.001
 2003 337    55  11.70  35.00  21.70  3.061  0.000  3.061  0.200  0.000  0.199  0.000  0.001  331.73   82.11    0.00   79.79    0.00    2.31   0.106   0.057   0.011   0.013   0.007   0.003   0.002   0.001
 2003 338    56  21.60  36.00  20.50  5.966  0.000  5.966  0.277  0.000  0.235  0.000  0.042  337.70   82.38    0.00   80.03    0.00    2.35   0.141   0.056   0.011   0.013   0.007   0.003   0.002   0.001
 2003 339    57  23.60  36.40  23.00  6.765  0.000  6.765  0.258  0.000  0.222  0.000  0.035  344.46   82.64    0.00   80.25    0.00    2.39   0.129   0.056   0.011   0.013   0.007   0.003   0.002   0.001
 2003 340    58  23.10  36.10  22.00  6.467  0.000  6.467  0.240  0.000  0.211  0.000  0.029  350.93   82.88    0.00   80.46    0.00    2.42   0.118   0.056   0.011   0.013   0.007   0.003   0.002   0.001
 2003 341    59  22.00  35.70  21.50  6.002  0.000  6.002  0.225  0.000  0.201  0.000  0.024  356.93   83.11    0.00   80.66    0.00    2.44   0.108   0.056   0.011   0.013   0.007   0.003   0.002   0.001
 2003 342    60  22.90  35.50  20.50  6.133  0.000  6.133  0.211  0.000  0.191  0.000  0.020  363.06   83.32    0.00   80.85    0.00    2.46   0.099   0.055   0.010   0.013   0.007   0.003   0.002   0.001
 2003 343    61  24.00  35.50  18.00  6.313  0.000  6.313  0.199  0.000  0.182  0.000  0.017  369.38   83.52    0.00   81.04    0.00    2.48   0.091   0.055   0.010   0.013   0.007   0.003   0.002   0.001
 2003 344    62  23.80  36.10  19.40  6.525  0.000  6.525  0.188  0.000  0.174  0.000  0.014  375.90   83.71    0.00   81.21    0.00    2.49   0.083   0.055   0.010   0.013   0.007   0.003   0.002   0.001
 2003 345    63  23.80  36.10  19.80  6.539  0.000  6.539  0.179  0.000  0.167  0.000  0.012  382.44   83.88    0.00   81.38    0.00    2.51   0.076   0.054   0.010   0.013   0.007   0.003   0.002   0.001
 2003 346    64  23.70  36.10  22.00  6.605  0.000  6.605  0.170  0.000  0.160  0.000  0.010  389.05   84.05    0.00   81.54    0.00    2.52   0.069   0.054   0.010   0.013   0.007   0.003   0.002   0.001
 2003 347    65  23.20  36.00  19.90  6.337  0.000  6.337  0.162  0.000  0.154  0.000  0.008  395.38   84.22    0.00   81.69    0.00    2.52   0.063   0.054   0.010   0.013   0.007   0.003   0.002   0.001
 2003 348    66  22.20  35.50  21.00  5.944  0.000  5.944  0.155  0.000  0.148  0.000  0.007  401.33   84.37    0.00   81.84    0.00    2.53   0.058   0.054   0.010   0.013   0.007   0.003   0.002   0.001
 2003 349    67  20.20  34.80  20.50  5.230  0.000  5.230  0.149  0.000  0.143  0.000  0.006  406.56   84.52    0.00   81.98    0.00    2.54   0.053   0.053   0.010   0.013   0.007   0.003   0.002   0.001
 2003 350    68  22.80  35.60  19.40  6.066  0.000  6.066  0.143  0.000  0.138  0.000  0.005  412.62   84.66    0.00   82.12    0.00    2.54   0.049   0.053   0.010   0.013   0.007   0.003   0.002   0.001
 2003 351    69  23.50  35.50  19.70  6.229  0.000  6.229  0.138  0.000  0.134  0.000  0.004  418.85   84.80    0.00   82.26    0.00    2.55   0.044   0.053   0.010   0.013   0.007   0.003   0.002   0.001
 2003 352    70  23.50  35.50  19.30  6.209  0.000  6.209  0.133  0.000  0.130  0.000  0.003  425.06   84.93    0.00   82.38    0.00    2.55   0.041   0.052   0.010   0.013   0.007   0.003   0.002   0.001
 2003 353    71  24.10  35.50  21.50  6.463  0.000  6.463  0.129  0.000  0.126  0.000  0.003  431.52   85.06    0.00   82.51    0.00    2.55   0.037   0.052   0.010   0.013   0.007   0.003   0.002   0.001
 2003 354    72  23.50  34.50  20.00  6.035  0.000  6.035  0.125  0.000  0.122  0.000  0.002  437.56   85.19    0.00   82.63    0.00    2.55   0.034   0.052   0.010   0.013   0.007   0.003   0.002   0.001
 2003 355    73  22.90  35.30  19.00  5.968  0.000  5.968  0.121  0.000  0.119  0.000  0.002  443.53   85.31    0.00   82.75    0.00    2.56   0.031   0.052   0.010   0.013   0.007   0.003   0.002   0.001
 2003 356    74  22.90  34.70  21.00  5.931  0.000  5.931  0.118  0.000  0.116  0.000  0.002  449.46   85.43    0.00   82.87    0.00    2.56   0.028   0.051   0.010   0.013   0.007   0.003   0.002   0.001
 2003 357    75  23.20  35.20  21.10  6.097  0.000  6.097  0.115  0.000  0.113  0.000  0.001  455.55   85.54    0.00   82.98    0.00    2.56   0.026   0.051   0.010   0.013   0.007   0.003   0.002   0.001
 2003 358    76  22.90  35.00  19.50  5.886  0.000  5.886  0.112  0.000  0.111  0.000  0.001  461.44   85.65    0.00   83.09    0.00    2.56   0.024   0.051   0.010   0.013   0.007   0.003   0.002   0.001
 2003 359    77  20.20  33.50  21.00  5.164  0.000  5.164  0.110  0.000  0.109  0.000  0.001  466.60   85.76    0.00   83.20    0.00    2.56   0.022   0.051   0.010   0.013   0.007   0.003   0.002   0.001
 2003 360    78  24.10  34.40  19.80  6.167  0.000  6.167  0.107  0.000  0.106  0.000  0.001  472.77   85.87    0.00   83.31    0.00    2.56   0.020   0.050   0.010   0.012   0.007   0.003   0.002   0.001
 2003 361    79  23.20  33.70  20.00  5.901  0.000  5.901  0.105  0.000  0.104  0.000  0.001  478.67   85.97    0.00   83.41    0.00    2.56   0.018   0.050   0.010   0.012   0.007   0.003   0.002   0.001
 2003 362    80  24.30  33.00  17.20  6.015  0.000  6.015  0.103  0.000  0.103  0.000  0.001  484.69   86.08    0.00   83.51    0.00    2.56   0.017   0.050   0.010   0.012   0.007   0.003   0.002   0.001
 2003 363    81  23.90  33.50  18.00  5.982  0.000  5.982  0.101  0.000  0.101  0.000  0.000  490.67   86.18    0.00   83.62    0.00    2.56   0.015   0.049   0.010   0.012   0.006   0.003   0.002   0.001
 2003 364    82  23.10  33.40  18.00  5.776  0.000  5.776  0.100  0.000  0.099  0.000  0.000  496.44   86.28    0.00   83.71    0.00    2.56   0.014   0.049   0.010   0.012   0.006   0.003   0.002   0.001
 2003 365    83  23.10  33.40  18.00  5.776  0.000  5.776  0.098  0.000  0.098  0.000  0.000  502.22   86.38    0.00   83.81    0.00    2.56   0.013   0.049   0.010   0.012   0.006   0.003   0.002   0.001
 2004 001    84  20.70  34.00  20.00  5.283  0.000  5.283  0.097  0.000  0.096  0.000  0.000  507.50   86.47    0.00   83.91    0.00    2.56   0.012   0.049   0.010   0.012   0.006   0.003   0.002   0.001
 2004 002    85  23.10  36.00  19.00  6.249  0.000  6.249  0.095  0.000  0.095  0.000  0.000  513.75   86.57    0.00   84.00    0.00    2.56   0.011   0.048   0.010   0.012   0.006   0.003   0.002   0.001
 2004 003    86  23.50  37.00  19.50  6.725  0.000  6.725  0.094  0.000  0.094  0.000  0.000  520.48   86.66    0.00   84.10    0.00    2.56   0.010   0.048   0.010   0.012   0.006   0.003   0.002   0.001
 2004 004    87  23.80  37.50  19.50  6.989  0.000  6.989  0.093  0.000  0.093  0.000  0.000  527.47   86.76    0.00   84.19    0.00    2.56   0.009   0.048   0.010   0.012   0.006   0.003   0.002   0.001
 2004 005    88  24.30  37.00  20.20  6.988  0.000  6.988  0.092  0.000  0.092  0.000  0.000  534.45   86.85    0.00   84.28    0.00    2.56   0.008   0.048   0.010   0.012   0.006   0.003   0.002   0.001
 2004 006    89  24.40  37.80  21.20  7.358  0.000  7.358  0.091  0.000  0.091  0.000  0.000  541.81   86.94    0.00   84.37    0.00    2.56   0.007   0.047   0.010   0.012   0.006   0.003   0.002   0.001
 2004 007    90  24.60  36.50  21.60  6.957  0.000  6.957  0.090  0.000  0.090  0.000  0.000  548.77   87.03    0.00   84.46    0.00    2.57   0.007   0.047   0.010   0.012   0.006   0.003   0.002   0.001
 2004 008    91  23.50  35.50  22.00  6.317  0.000  6.317  0.089  0.000  0.089  0.000  0.000  555.09   87.12    0.00   84.55    0.00    2.57   0.006   0.047   0.010   0.012   0.006   0.003   0.002   0.001
 2004 009    92  21.40  34.00  21.50  5.520  0.000  5.520  0.088  0.000  0.088  0.000  0.000  560.61   87.21    0.00   84.64    0.00    2.57   0.006   0.047   0.010   0.012   0.006   0.003   0.002   0.001
 2004 010    93  23.60  34.00  20.50  6.046  0.000  6.046  0.087  0.000  0.087  0.000  0.000  566.65   87.29    0.00   84.73    0.00    2.57   0.005   0.046   0.010   0.012   0.006   0.003   0.002   0.001
 2004 011    94  24.50  35.50  20.00  6.497  0.000  6.497  0.087  0.000  0.087  0.000  0.000  573.15   87.38    0.00   84.81    0.00    2.57   0.005   0.046   0.010   0.012   0.006   0.003   0.002   0.001
 2004 012    95  23.90  35.50  20.90  6.377  0.000  6.377  0.086  0.000  0.086  0.000  0.000  579.53   87.47    0.00   84.90    0.00    2.57   0.004   0.046   0.010   0.012   0.006   0.003   0.002   0.001
 2004 013    96  23.90  36.00  21.00  6.557  0.000  6.557  0.085  0.000  0.085  0.000  0.000  586.08   87.55    0.00   84.99    0.00    2.57   0.004   0.046   0.010   0.012   0.006   0.003   0.002   0.001
 2004 014    97  22.70  36.60  21.50  6.451  0.000  6.451  0.085  0.000  0.085  0.000  0.000  592.53   87.64    0.00   85.07    0.00    2.57   0.004   0.045   0.010   0.012   0.006   0.003   0.002   0.001
 2004 015    98  20.90  35.20  22.50  5.546  0.000  5.546  0.084  0.000  0.084  0.000  0.000  598.08   87.72    0.00   85.15    0.00    2.57   0.003   0.045   0.010   0.012   0.006   0.003   0.002   0.001
 2004 016    99  19.90  32.50  22.00  5.072  0.000  5.072  0.084  0.000  0.084  0.000  0.000  603.15   87.80    0.00   85.24    0.00    2.57   0.003   0.045   0.010   0.012   0.006   0.003   0.002   0.001
 2004 017   100  23.20  36.80  21.70  6.672  0.000  6.672  0.083  0.000  0.083  0.000  0.000  609.82   87.89    0.00   85.32    0.00    2.57   0.003   0.045   0.010   0.012   0.006   0.003   0.002   0.001
 2004 018   101  23.90  37.50  21.50  7.116  0.000  7.116  0.083  0.000  0.083  0.000  0.000  616.94   87.97    0.00   85.40    0.00    2.57   0.003   0.044   0.010   0.012   0.006   0.003   0.002   0.001
 2004 019   102  23.00  37.00  23.00  6.742  0.000  6.742  0.082  0.000  0.082  0.000  0.000  623.68   88.05    0.00   85.49    0.00    2.57   0.002   0.044   0.010   0.012   0.006   0.003   0.002   0.001
 2004 020   103  19.50  36.80  26.00  5.770  0.000  5.770  3.107  0.000  3.107  0.000  0.000  629.45   91.16    0.00   88.59    0.00    2.57   0.804   0.657   0.251   0.413   0.324   0.234   0.201   0.223
 2004 021   104  18.90  30.00  21.20  5.074  0.000  5.074  3.583  0.000  3.543  0.000  0.040  634.53   94.74    0.00   92.14    0.00    2.61   1.130   0.742   0.253   0.423   0.329   0.236   0.203   0.226
 2004 022   105  10.40  29.50  20.80  2.692  0.000  2.692  2.380  0.000  2.347  0.000  0.033  637.22   97.12    0.00   94.48    0.00    2.64   0.664   0.493   0.168   0.299   0.236   0.172   0.149   0.166
 2004 023   106  18.10  34.50  21.50  4.929  0.000  4.929  3.154  0.000  3.127  0.000  0.027  642.15  100.27    0.00   97.61    0.00    2.67   0.831   0.659   0.228   0.411   0.326   0.237   0.206   0.228
 2004 024   107  25.10  36.00  20.60  7.172  0.000  7.172  0.570  0.000  0.547  0.000  0.023  649.32  100.84    0.00   98.16    0.00    2.69   0.447   0.063   0.011   0.013   0.007   0.003   0.002   0.001
 2004 025   108  20.90  35.50  21.40  5.828  0.000  5.828  0.528  0.000  0.509  0.000  0.019  655.15  101.37    0.00   98.66    0.00    2.71   0.409   0.063   0.011   0.013   0.007   0.003   0.002   0.001
 2004 026   109  24.50  36.40  22.20  7.191  0.000  7.191  0.489  0.000  0.474  0.000  0.016  662.34  101.86    0.00   99.14    0.00    2.72   0.374   0.063   0.011   0.013   0.007   0.003   0.002   0.001
 2004 027   110  24.50  36.80  22.10  7.321  0.000  7.321  0.455  0.000  0.441  0.000  0.013  669.66  102.32    0.00   99.58    0.00    2.74   0.342   0.062   0.011   0.013   0.007   0.003   0.002   0.001
 2004 028   111  25.00  36.50  22.00  7.332  0.000  7.332  0.423  0.000  0.412  0.000  0.011  676.99  102.74    0.00   99.99    0.00    2.75   0.313   0.062   0.011   0.013   0.007   0.003   0.002   0.001
 2004 029   112  24.40  36.10  23.00  7.039  0.000  7.039  0.394  0.000  0.385  0.000  0.009  684.03  103.13    0.00  100.38    0.00    2.76   0.286   0.062   0.011   0.013   0.007   0.003   0.002   0.001
 2004 030   113  25.80  37.40  20.20  7.802  0.000  7.802  0.368  0.000  0.360  0.000  0.008  691.83  103.50    0.00  100.74    0.00    2.77   0.262   0.061   0.011   0.013   0.007   0.003   0.002   0.001
 2004 031   114  25.70  37.30  20.00  7.708  0.000  7.708  0.344  0.000  0.337  0.000  0.007  699.54  103.85    0.00  101.07    0.00    2.77   0.239   0.061   0.011   0.013   0.007   0.003   0.002   0.001
 2004 032   115  25.30  36.80  21.20  7.442  0.000  7.442  0.322  0.000  0.317  0.000  0.006  706.98  104.17    0.00  101.39    0.00    2.78   0.219   0.061   0.011   0.013   0.007   0.003   0.002   0.001
 2004 033   116  24.70  37.00  22.80  7.408  0.000  7.408  0.302  0.000  0.298  0.000  0.005  714.39  104.47    0.00  101.69    0.00    2.78   0.200   0.060   0.011   0.013   0.007   0.003   0.002   0.001
 2004 034   117  22.30  35.00  23.00  6.008  0.000  6.008  0.284  0.000  0.280  0.000  0.004  720.40  104.75    0.00  101.97    0.00    2.79   0.183   0.060   0.011   0.013   0.007   0.003   0.002   0.001
 2004 035   118  21.60  32.40  20.50  5.561  0.000  5.561  0.268  0.000  0.264  0.000  0.004  725.96  105.02    0.00  102.23    0.00    2.79   0.168   0.060   0.011   0.013   0.007   0.003   0.002   0.001
 2004 036   119  19.00  31.80  20.00  4.837  0.000  4.837  0.253  0.000  0.250  0.000  0.003  730.80  105.27    0.00  102.48    0.00    2.79   0.153   0.059   0.011   0.013   0.007   0.003   0.002   0.001
 2004 037   120  19.90  33.00  20.10  5.128  0.000  5.128  0.239  0.000  0.236  0.000  0.003  735.92  105.51    0.00  102.72    0.00    2.80   0.140   0.059   0.010   0.013   0.006   0.003   0.002   0.001
 2004 038   121  16.70  34.30  21.50  4.400  0.000  4.400  0.226  0.000  0.224  0.000  0.002  740.32  105.74    0.00  102.94    0.00    2.80   0.128   0.059   0.010   0.013   0.006   0.003   0.002   0.001
 2004 039   122  12.00  33.40  22.10  3.142  0.000  3.142  0.214  0.000  0.213  0.000  0.002  743.47  105.95    0.00  103.15    0.00    2.80   0.117   0.059   0.010   0.013   0.006   0.003   0.002   0.001
 2004 040   123  13.90  34.50  22.40  3.685  0.000  3.685  0.204  0.000  0.202  0.000  0.002  747.15  106.16    0.00  103.36    0.00    2.80   0.107   0.058   0.010   0.013   0.006   0.003   0.002   0.001
 2004 041   124  15.90  36.20  22.20  4.513  0.000  4.513  0.194  0.000  0.193  0.000  0.001  751.66  106.35    0.00  103.55    0.00    2.80   0.098   0.058   0.010   0.013   0.006   0.003   0.002   0.001
 2004 042   125  19.20  37.80  22.80  5.938  0.000  5.938  0.185  0.000  0.184  0.000  0.001  757.60  106.54    0.00  103.73    0.00    2.80   0.090   0.058   0.010   0.012   0.006   0.003   0.002   0.001
 2004 043   126  23.90  39.60  23.80  8.115  0.000  8.115  0.177  0.000  0.176  0.000  0.001  765.72  106.71    0.00  103.91    0.00    2.81   0.082   0.057   0.010   0.012   0.006   0.003   0.002   0.001
 2004 044   127  24.10  38.60  23.50  7.779  0.000  7.779  0.169  0.000  0.169  0.000  0.001  773.50  106.88    0.00  104.08    0.00    2.81   0.075   0.057   0.010   0.012   0.006   0.003   0.002   0.001
 2004 045   128  19.70  38.60  24.50  6.396  0.000  6.396  0.163  0.000  0.162  0.000  0.001  779.89  107.05    0.00  104.24    0.00    2.81   0.069   0.057   0.010   0.012   0.006   0.003   0.002   0.001
 2004 046   129  21.80  38.80  26.40  7.231  0.000  7.231  0.156  0.000  0.156  0.000  0.001  787.12  107.20    0.00  104.39    0.00    2.81   0.063   0.056   0.010   0.012   0.006   0.003   0.002   0.001
 2004 047   130  20.20  37.60  25.70  6.284  0.000  6.284  0.151  0.000  0.150  0.000  0.001  793.41  107.35    0.00  104.54    0.00    2.81   0.058   0.056   0.010   0.012   0.006   0.003   0.002   0.001
 2004 048   131  22.10  37.00  24.10  6.596  0.000  6.596  0.145  0.000  0.145  0.000  0.000  800.00  107.50    0.00  104.69    0.00    2.81   0.053   0.056   0.010   0.012   0.006   0.003   0.002   0.001
 2004 049   132  22.30  38.00  25.00  7.039  0.000  7.039  0.140  0.000  0.140  0.000  0.000  807.04  107.64    0.00  104.83    0.00    2.81   0.048   0.056   0.010   0.012   0.006   0.003   0.002   0.001
 2004 050   133  20.10  38.10  25.30  6.386  0.000  6.386  0.136  0.000  0.136  0.000  0.000  813.43  107.77    0.00  104.96    0.00    2.81   0.044   0.055   0.010   0.012   0.006   0.003   0.002   0.001
 2004 051   134  18.10  37.70  26.30  5.672  0.000  5.672  0.132  0.000  0.131  0.000  0.000  819.10  107.91    0.00  105.10    0.00    2.81   0.040   0.055   0.010   0.012   0.006   0.003   0.002   0.001
 2004 052   135  20.00  38.80  25.10  6.564  0.000  6.564  0.128  0.000  0.128  0.000  0.000  825.67  108.03    0.00  105.22    0.00    2.81   0.037   0.055   0.010   0.012   0.006   0.003   0.002   0.001
 2004 053   136  24.00  39.50  26.20  8.199  0.000  8.199  0.124  0.000  0.124  0.000  0.000  833.86  108.16    0.00  105.35    0.00    2.81   0.034   0.054   0.010   0.012   0.006   0.003   0.002   0.001
 2004 054   137  23.10  38.60  23.50  7.427  0.000  7.427  0.121  0.000  0.121  0.000  0.000  841.29  108.28    0.00  105.47    0.00    2.81   0.031   0.054   0.010   0.012   0.006   0.003   0.002   0.001
 2004 055   138  22.60  38.00  23.10  7.034  0.000  7.034  0.118  0.000  0.118  0.000  0.000  848.33  108.40    0.00  105.59    0.00    2.81   0.028   0.054   0.010   0.012   0.006   0.003   0.002   0.001
 2004 056   139  23.00  39.50  23.80  7.733  0.000  7.733  0.115  0.000  0.115  0.000  0.000  856.06  108.51    0.00  105.70    0.00    2.81   0.026   0.054   0.010   0.012   0.006   0.003   0.002   0.001
 2004 057   140  24.10  38.50  25.30  7.796  0.000  7.796  0.113  0.000  0.113  0.000  0.000  863.85  108.63    0.00  105.82    0.00    2.81   0.024   0.053   0.010   0.012   0.006   0.003   0.002   0.001
 2004 058   141  20.30  38.00  25.60  6.418  0.000  6.418  0.111  0.000  0.110  0.000  0.000  870.27  108.74    0.00  105.93    0.00    2.81   0.022   0.053   0.010   0.012   0.006   0.003   0.002   0.001
 2004 059   142  24.70  37.50  26.50  7.659  0.000  7.659  0.511  0.000  0.511  0.000  0.000  877.93  109.25    0.00  106.44    0.00    2.81   0.414   0.061   0.010   0.012   0.006   0.003   0.002   0.001
 2004 060   143  23.90  36.20  25.60  7.398  0.000  7.398  3.340  0.000  3.309  0.000  0.031  885.33  112.59    0.00  109.75    0.00    2.84   1.029   0.681   0.223   0.403   0.316   0.231   0.202   0.224
 2004 061   144  22.30  37.50  26.40  7.276  0.000  7.276  3.426  0.000  3.400  0.000  0.026  892.61  116.01    0.00  113.15    0.00    2.87   1.097   0.691   0.235   0.417   0.315   0.227   0.199   0.221
 2004 062   145  17.90  29.90  22.20  4.795  0.000  4.795  3.381  0.000  3.350  0.000  0.030  897.40  119.40    0.00  116.50    0.00    2.90   1.029   0.704   0.245   0.420   0.316   0.223   0.196   0.219
 2004 063   146  18.80  31.70  23.20  5.096  0.000  5.096  3.178  0.000  3.150  0.000  0.028  902.50  122.57    0.00  119.65    0.00    2.93   0.888   0.672   0.232   0.417   0.314   0.219   0.193   0.216
 2004 064   147  16.80  29.90  23.10  4.437  0.000  4.437  0.602  0.000  0.578  0.000  0.024  906.93  123.17    0.00  120.23    0.00    2.95   0.477   0.065   0.011   0.013   0.006   0.003   0.002   0.001
 2004 065   148  20.90  30.80  17.90  5.352  0.000  5.352  0.558  0.000  0.537  0.000  0.020  912.29  123.73    0.00  120.76    0.00    2.97   0.436   0.064   0.011   0.013   0.006   0.003   0.002   0.001
 2004 066   149  20.00  32.70  20.00  5.292  0.000  5.292  0.517  0.000  0.500  0.000  0.017  917.58  124.25    0.00  121.26    0.00    2.99   0.399   0.064   0.011   0.013   0.006   0.003   0.002   0.001
 2004 067   150  21.70  33.60  20.80  5.812  0.000  5.812  0.480  0.000  0.465  0.000  0.015  923.39  124.73    0.00  121.73    0.00    3.00   0.365   0.064   0.011   0.013   0.006   0.003   0.002   0.001
 2004 068   151  21.50  35.20  22.50  5.962  0.000  5.962  0.447  0.000  0.434  0.000  0.013  929.35  125.18    0.00  122.16    0.00    3.02   0.334   0.063   0.011   0.013   0.006   0.003   0.002   0.001
 2004 069   152  20.00  36.80  23.30  6.059  0.000  6.059  0.416  0.000  0.405  0.000  0.011  935.41  125.59    0.00  122.57    0.00    3.03   0.306   0.063   0.011   0.013   0.006   0.003   0.002   0.001
 2004 070   153  19.70  37.80  23.90  6.292  0.000  6.292  0.388  0.000  0.379  0.000  0.010  941.70  125.98    0.00  122.94    0.00    3.04   0.280   0.063   0.011   0.013   0.006   0.003   0.002   0.001
 2004 071   154  19.70  37.90  24.60  6.339  0.000  6.339  0.363  0.000  0.354  0.000  0.008  948.04  126.34    0.00  123.30    0.00    3.04   0.256   0.062   0.011   0.013   0.006   0.003   0.002   0.001
 2004 072   155  20.00  39.00  26.40  6.857  0.000  6.857  0.340  0.000  0.332  0.000  0.007  954.90  126.68    0.00  123.63    0.00    3.05   0.234   0.062   0.011   0.013   0.006   0.003   0.002   0.001
 2004 073   156  22.10  38.50  24.90  7.313  0.000  7.313  0.318  0.000  0.312  0.000  0.006  962.21  127.00    0.00  123.94    0.00    3.06   0.214   0.062   0.011   0.013   0.006   0.003   0.002   0.001
 2004 074   157  24.40  39.50  23.50  8.382  0.000  8.382  0.299  0.000  0.293  0.000  0.006  970.59  127.30    0.00  124.24    0.00    3.06   0.196   0.061   0.011   0.013   0.006   0.003   0.002   0.001
 2004 075   158  24.70  39.20  23.60  8.358  0.000  8.358  0.281  0.000  0.276  0.000  0.005  978.95  127.58    0.00  124.51    0.00    3.07   0.179   0.061   0.011   0.013   0.006   0.003   0.002   0.001
 2004 076   159  23.20  39.60  24.00  8.010  0.000  8.010  0.265  0.000  0.261  0.000  0.004  986.96  127.85    0.00  124.77    0.00    3.07   0.164   0.061   0.011   0.013   0.006   0.003   0.002   0.001
 2004 077   160  12.30  38.00  28.00  4.027  0.000  4.027  0.250  0.000  0.246  0.000  0.004  990.99  128.10    0.00  125.02    0.00    3.08   0.150   0.060   0.011   0.013   0.006   0.003   0.002   0.001
 2004 078   161  19.40  38.00  25.40  6.239  0.000  6.239  0.237  0.000  0.233  0.000  0.003  997.23  128.33    0.00  125.25    0.00    3.08   0.137   0.060   0.011   0.013   0.006   0.003   0.002   0.001
 2004 079   162  17.40  38.00  24.50  5.557  0.000  5.557  0.224  0.000  0.221  0.000  0.003   1003.    129.      0.    125.      0.      3.   0.125   0.060   0.011   0.013   0.006   0.003   0.002   0.001
 2004 080   163  15.70  39.40  25.70  5.403  0.000  5.403  0.213  0.000  0.210  0.000  0.002   1008.    129.      0.    126.      0.      3.   0.115   0.059   0.011   0.013   0.006   0.003   0.002   0.001
 2004 081   164  18.60  38.50  27.20  6.183  0.000  6.183  0.202  0.000  0.200  0.000  0.002   1014.    129.      0.    126.      0.      3.   0.105   0.059   0.011   0.013   0.006   0.003   0.002   0.001
 2004 082   165  16.70  37.70  28.30  5.369  0.000  5.369  0.193  0.000  0.191  0.000  0.002   1020.    129.      0.    126.      0.      3.   0.096   0.059   0.011   0.013   0.006   0.003   0.002   0.001
 2004 083   166  14.90  39.10  28.00  5.116  0.000  5.116  0.184  0.000  0.182  0.000  0.002   1025.    129.      0.    126.      0.      3.   0.088   0.058   0.011   0.013   0.006   0.003   0.002   0.001
 2004 084   167  20.50  39.00  28.00  7.000  0.000  7.000  0.176  0.000  0.175  0.000  0.001   1032.    130.      0.    126.      0.      3.   0.080   0.058   0.011   0.013   0.006   0.003   0.002   0.001
 2004 085   168  22.50  40.10  28.00  8.086  0.000  8.086  0.169  0.000  0.167  0.000  0.001   1040.    130.      0.    127.      0.      3.   0.074   0.058   0.011   0.013   0.006   0.003   0.002   0.001
 2004 086   169  23.50  40.10  27.00  8.388  0.000  8.388  0.162  0.000  0.161  0.000  0.001   1048.    130.      0.    127.      0.      3.   0.067   0.057   0.011   0.013   0.006   0.003   0.002   0.001
 2004 087   170  23.50  39.40  28.40  8.184  0.000  8.184  0.156  0.000  0.155  0.000  0.001   1057.    130.      0.    127.      0.      3.   0.062   0.057   0.010   0.013   0.006   0.003   0.002   0.001
 2004 088   171  22.10  38.70  28.00  7.421  0.000  7.421  0.150  0.000  0.149  0.000  0.001   1064.    130.      0.    127.      0.      3.   0.056   0.057   0.010   0.013   0.006   0.003   0.002   0.001
 2004 089   172  18.70  38.80  29.30  6.359  0.000  6.359  0.440  0.000  0.439  0.000  0.001   1070.    131.      0.    128.      0.      3.   0.344   0.060   0.010   0.013   0.006   0.003   0.002   0.001
 2004 090   173  22.00  37.80  25.00  7.313  0.000  7.313  3.396  0.000  3.373  0.000  0.023   1078.    134.      0.    131.      0.      3.   1.147   0.670   0.229   0.408   0.305   0.213   0.189   0.213
 2004 091   174  18.10  32.70  21.80  5.018  0.000  5.018  3.255  0.000  3.235  0.000  0.020   1083.    137.      0.    134.      0.      3.   0.997   0.679   0.230   0.413   0.310   0.209   0.186   0.210
 2004 092   175  15.60  34.20  24.00  4.385  0.000  4.385  0.655  0.000  0.638  0.000  0.017   1087.    138.      0.    135.      0.      3.   0.536   0.065   0.011   0.013   0.006   0.003   0.002   0.001
 2004 093   176  11.20  35.30  24.80  3.232  0.000  3.232  0.607  0.000  0.592  0.000  0.015   1090.    139.      0.    135.      0.      3.   0.490   0.065   0.011   0.013   0.006   0.003   0.002   0.001
 2004 094   177  21.30  38.70  25.50  7.334  0.000  7.334  0.563  0.000  0.549  0.000  0.013   1098.    139.      0.    136.      0.      3.   0.448   0.065   0.011   0.013   0.006   0.003   0.002   0.001
 2004 095   178  24.10  39.00  26.90  8.468  0.000  8.468  0.522  0.000  0.511  0.000  0.011   1106.    140.      0.    136.      0.      3.   0.410   0.064   0.011   0.013   0.006   0.003   0.002   0.001
 2004 096   179  24.70  37.10  27.20  7.891  0.000  7.891  0.486  0.000  0.476  0.000  0.010   1114.    140.      0.    137.      0.      3.   0.375   0.064   0.011   0.013   0.006   0.003   0.002   0.001
 2004 097   180  24.30  38.50  26.90  8.287  0.000  8.287  0.452  0.000  0.443  0.000  0.009   1122.    141.      0.    137.      0.      3.   0.343   0.064   0.011   0.013   0.006   0.003   0.002   0.001
 2004 098   181  21.70  36.70  27.10  6.752  0.000  6.752  0.421  0.000  0.414  0.000  0.008   1129.    141.      0.    138.      0.      3.   0.314   0.063   0.011   0.013   0.006   0.003   0.002   0.001
 2004 099   182  11.70  31.60  26.60  3.194  0.000  3.194  2.935  0.000  2.928  0.000  0.007   1132.    144.      0.    141.      0.      3.   0.786   0.641   0.221   0.398   0.306   0.199   0.177   0.201
 2004 100   183  16.30  35.00  22.00  4.626  0.000  4.626  3.174  0.000  3.155  0.000  0.019   1137.    147.      0.    144.      0.      3.   0.952   0.669   0.227   0.411   0.309   0.201   0.180   0.205
 2004 101   184  21.20  35.80  26.00  6.372  0.000  6.372  3.408  0.000  3.391  0.000  0.017   1143.    150.      0.    147.      0.      3.   1.147   0.699   0.240   0.419   0.309   0.198   0.177   0.202
 2004 102   185  21.10  35.20  24.20  6.249  0.000  6.249  3.332  0.000  3.313  0.000  0.019   1149.    154.      0.    151.      0.      3.   1.059   0.693   0.237   0.419   0.320   0.211   0.174   0.199
 2004 103   186  24.20  38.00  25.50  8.176  0.000  8.176  3.129  0.000  3.112  0.000  0.016   1158.    157.      0.    154.      0.      3.   0.898   0.660   0.229   0.408   0.324   0.225   0.171   0.197
 2004 104   187  23.10  38.70  26.80  8.082  0.000  8.082  0.597  0.000  0.582  0.000  0.014   1166.    158.      0.    154.      0.      3.   0.483   0.064   0.011   0.013   0.006   0.003   0.002   0.001
 2004 105   188  21.70  38.00  27.20  7.329  0.000  7.329  3.651  0.000  3.638  0.000  0.013   1173.    161.      0.    158.      0.      3.   1.157   0.822   0.293   0.435   0.334   0.232   0.170   0.194
 2004 106   189  22.10  34.10  21.50  6.359  0.000  6.359  3.614  0.000  3.597  0.000  0.017   1179.    165.      0.    161.      0.      3.   1.112   0.793   0.278   0.436   0.336   0.240   0.189   0.212
 2004 107   190  20.50  35.50  23.00  6.010  0.000  6.010  3.311  0.000  3.296  0.000  0.015   1185.    168.      0.    165.      0.      3.   0.917   0.704   0.244   0.424   0.330   0.238   0.207   0.231
 2004 108   191  20.70  36.70  26.40  6.553  0.000  6.553  3.112  0.000  3.099  0.000  0.013   1192.    171.      0.    168.      0.      3.   0.791   0.667   0.230   0.415   0.324   0.236   0.206   0.230
 2004 109   192  14.40  33.20  26.60  4.068  0.000  4.068  0.538  0.000  0.526  0.000  0.012   1196.    172.      0.    168.      0.      3.   0.425   0.064   0.011   0.013   0.006   0.003   0.002   0.001
 2004 110   193  19.80  35.70  25.80  5.868  0.000  5.868  0.500  0.000  0.490  0.000  0.010   1202.    172.      0.    169.      0.      3.   0.389   0.064   0.011   0.013   0.006   0.003   0.002   0.001
 2004 111   194  20.90  37.60  26.60  6.853  0.000  6.853  3.265  0.000  3.255  0.000  0.009   1209.    176.      0.    172.      0.      3.   0.948   0.679   0.235   0.414   0.319   0.232   0.202   0.227
 2004 112   195  23.40  34.50  22.50  6.725  0.000  6.725  3.336  0.000  3.321  0.000  0.015   1215.    179.      0.    175.      0.      3.   1.010   0.681   0.232   0.416   0.323   0.234   0.200   0.224
 2004 113   196  21.90  35.00  26.00  6.355  0.000  6.355  3.566  0.000  3.552  0.000  0.013   1222.    182.      0.    179.      0.      3.   1.190   0.709   0.245   0.420   0.329   0.239   0.198   0.221
 2004 114   197  16.60  33.10  22.30  4.742  0.000  4.742  3.439  0.000  3.425  0.000  0.015   1227.    186.      0.    182.      0.      3.   1.071   0.697   0.239   0.421   0.329   0.239   0.202   0.226
 2004 115   198  24.00  36.20  24.80  7.404  0.000  7.404  3.299  0.000  3.286  0.000  0.013   1234.    189.      0.    186.      0.      3.   0.967   0.675   0.233   0.415   0.324   0.236   0.206   0.230
 2004 116   199  22.10  35.00  22.40  6.271  0.000  6.271  3.161  0.000  3.147  0.000  0.014   1240.    192.      0.    189.      0.      3.   0.878   0.654   0.227   0.409   0.317   0.232   0.202   0.227
 2004 117   200  23.90  36.60  27.00  7.568  0.000  7.568  0.629  0.000  0.616  0.000  0.013   1248.    193.      0.    189.      0.      3.   0.517   0.063   0.011   0.013   0.006   0.003   0.002   0.001
 2004 118   201  13.80  28.60  23.50  3.683  0.000  3.683  0.631  0.000  0.617  0.000  0.013   1251.    194.      0.    190.      0.      4.   0.517   0.063   0.011   0.013   0.006   0.003   0.002   0.001
 2004 119   202  23.30  36.10  24.00  7.053  0.000  7.053  0.585  0.000  0.573  0.000  0.012   1259.    194.      0.    191.      0.      4.   0.473   0.063   0.011   0.013   0.006   0.003   0.002   0.001
 2004 120   203  18.80  34.80  24.70  5.356  0.000  5.356  3.623  0.000  3.612  0.000  0.011   1264.    198.      0.    194.      0.      4.   1.151   0.777   0.275   0.428   0.326   0.234   0.199   0.224
 2004 121   204  16.50  33.60  21.60  4.758  0.000  4.758  3.583  0.000  3.570  0.000  0.013   1269.    201.      0.    198.      0.      4.   1.112   0.761   0.265   0.430   0.334   0.238   0.202   0.227
 2004 122   205  16.70  34.20  24.80  4.812  0.000  4.812  3.283  0.000  3.272  0.000  0.011   1273.    205.      0.    201.      0.      4.   0.917   0.692   0.238   0.419   0.329   0.238   0.207   0.231
 2004 123   206  20.40  35.80  26.10  6.182  0.000  6.182  3.091  0.000  3.080  0.000  0.010   1280.    208.      0.    204.      0.      4.   0.791   0.656   0.230   0.408   0.324   0.236   0.206   0.230
 2004 124   207  23.60  36.10  25.80  7.207  0.000  7.207  0.534  0.000  0.525  0.000  0.009   1287.    208.      0.    205.      0.      4.   0.425   0.063   0.011   0.013   0.006   0.003   0.002   0.001
 2004 125   208  22.00  36.00  26.80  6.705  0.000  6.705  0.646  0.000  0.637  0.000  0.008   1294.    209.      0.    205.      0.      4.   0.534   0.066   0.011   0.013   0.006   0.003   0.002   0.001
 2004 126   209  16.80  33.00  24.30  4.789  0.000  4.789  3.354  0.000  3.342  0.000  0.012   1298.    212.      0.    209.      0.      4.   1.027   0.693   0.236   0.408   0.317   0.232   0.202   0.227
 2004 127   210  14.70  29.30  23.30  3.974  0.000  3.974  3.170  0.000  3.158  0.000  0.011   1302.    215.      0.    212.      0.      4.   0.895   0.667   0.229   0.407   0.310   0.227   0.199   0.224
 2004 128   211  21.70  34.50  24.00  6.179  0.000  6.179  0.591  0.000  0.581  0.000  0.010   1308.    216.      0.    212.      0.      4.   0.481   0.064   0.011   0.013   0.006   0.003   0.002   0.001
 2004 129   212  23.20  36.00  25.50  7.055  0.000  7.055  0.549  0.000  0.540  0.000  0.009   1316.    217.      0.    213.      0.      4.   0.440   0.064   0.011   0.013   0.006   0.003   0.002   0.001
 2004 130   213  23.00  35.50  26.20  6.816  0.000  6.816  0.511  0.000  0.502  0.000  0.008   1322.    217.      0.    213.      0.      4.   0.402   0.063   0.011   0.013   0.006   0.003   0.002   0.001
 2004 131   214  16.50  33.70  25.50  4.659  0.000  4.659  0.475  0.000  0.468  0.000  0.008   1327.    218.      0.    214.      0.      4.   0.368   0.063   0.011   0.013   0.006   0.003   0.002   0.001
 2004 132   215  22.20  35.80  26.20  6.646  0.000  6.646  3.146  0.000  3.139  0.000  0.007   1334.    221.      0.    217.      0.      4.   0.895   0.667   0.231   0.404   0.303   0.223   0.196   0.221
 2004 133   216  20.70  34.50  24.80  6.062  0.000  6.062  3.245  0.000  3.235  0.000  0.011   1340.    224.      0.    220.      0.      4.   0.983   0.680   0.230   0.410   0.302   0.219   0.193   0.218
 2004 134   217  15.60  31.50  25.10  4.367  0.000  4.367  0.640  0.000  0.630  0.000  0.010   1344.    225.      0.    221.      0.      4.   0.528   0.065   0.011   0.013   0.006   0.003   0.002   0.001
 2004 135   218  24.00  35.00  25.00  6.929  0.000  6.929  3.435  0.000  3.427  0.000  0.009   1351.    228.      0.    224.      0.      4.   1.133   0.704   0.242   0.419   0.308   0.215   0.190   0.216
 2004 136   219  13.10  29.00  24.20  3.657  0.000  3.657  3.445  0.000  3.435  0.000  0.010   1355.    231.      0.    228.      0.      4.   1.186   0.706   0.251   0.408   0.305   0.200   0.177   0.202
 2004 137   220  20.60  33.00  22.30  5.834  0.000  5.834  3.287  0.000  3.277  0.000  0.010   1361.    235.      0.    231.      0.      4.   0.968   0.692   0.242   0.423   0.330   0.224   0.187   0.210
 2004 138   221  23.00  34.00  25.00  6.603  0.000  6.603  3.099  0.000  3.090  0.000  0.009   1367.    238.      0.    234.      0.      4.   0.836   0.656   0.230   0.413   0.324   0.236   0.187   0.208
 2004 139   222  17.30  33.60  25.50  4.930  0.000  4.930  0.557  0.000  0.549  0.000  0.008   1372.    238.      0.    235.      0.      4.   0.449   0.063   0.011   0.013   0.006   0.003   0.002   0.001
 2004 140   223  19.30  35.40  25.10  5.666  0.000  5.666  3.724  0.000  3.717  0.000  0.007   1378.    242.      0.    238.      0.      4.   1.133   0.854   0.304   0.448   0.339   0.242   0.192   0.205
 2004 141   224  22.60  30.50  22.10  6.369  0.000  6.369  3.678  0.000  3.668  0.000  0.009   1384.    246.      0.    242.      0.      4.   1.113   0.821   0.287   0.444   0.340   0.243   0.203   0.218
 2004 142   225  16.40  31.80  24.60  4.631  0.000  4.631  3.322  0.000  3.314  0.000  0.009   1389.    249.      0.    245.      0.      4.   0.917   0.714   0.247   0.424   0.333   0.240   0.207   0.231
 2004 143   226  21.00  35.00  25.00  6.081  0.000  6.081  3.121  0.000  3.113  0.000  0.008   1395.    252.      0.    249.      0.      4.   0.792   0.677   0.231   0.415   0.325   0.236   0.206   0.230
 2004 144   227  16.60  32.70  25.00  4.666  0.000  4.666  3.299  0.000  3.292  0.000  0.007   1399.    256.      0.    252.      0.      4.   0.974   0.685   0.236   0.415   0.321   0.232   0.202   0.227
 2004 145   228  18.80  32.40  23.10  5.346  0.000  5.346  3.302  0.000  3.293  0.000  0.009   1405.    259.      0.    255.      0.      4.   0.986   0.680   0.232   0.416   0.324   0.233   0.199   0.224
 2004 146   229  19.80  33.50  24.00  5.633  0.000  5.633  0.640  0.000  0.632  0.000  0.008   1410.    260.      0.    256.      0.      4.   0.529   0.065   0.011   0.013   0.007   0.003   0.002   0.001
 2004 147   230  11.20  30.60  25.40  3.109  0.000  3.109  2.943  0.000  2.935  0.000  0.007   1414.    262.      0.    259.      0.      4.   0.905   0.674   0.232   0.348   0.264   0.187   0.155   0.170
 2004 148   231  19.00  31.00  20.00  5.322  0.000  5.322  3.745  0.000  3.737  0.000  0.008   1419.    266.      0.    262.      0.      4.   1.126   0.842   0.288   0.451   0.345   0.246   0.211   0.228
 2004 149   232  22.10  32.70  23.50  6.266  0.000  6.266  3.705  0.000  3.698  0.000  0.008   1425.    270.      0.    266.      0.      4.   1.131   0.794   0.287   0.449   0.345   0.247   0.211   0.233
 2004 150   233  12.60  28.00  23.40  3.431  0.000  3.431  3.251  0.000  3.243  0.000  0.008   1429.    273.      0.    269.      0.      4.   1.070   0.652   0.248   0.384   0.297   0.212   0.181   0.198
 2004 151   234  17.70  31.40  21.50  4.970  0.000  4.970  3.471  0.000  3.463  0.000  0.008   1434.    277.      0.    273.      0.      4.   1.036   0.708   0.253   0.433   0.340   0.246   0.212   0.235
 2004 152   235  21.40  32.50  23.90  6.047  0.000  6.047  3.243  0.000  3.235  0.000  0.007   1440.    280.      0.    276.      0.      4.   0.895   0.671   0.234   0.421   0.332   0.241   0.209   0.232
 2004 153   236  18.60  32.00  23.90  5.190  0.000  5.190  3.188  0.000  3.181  0.000  0.007   1445.    283.      0.    279.      0.      4.   0.888   0.657   0.229   0.410   0.325   0.237   0.206   0.230
 2004 154   237  12.20  27.00  22.50  3.217  0.000  3.217  3.053  0.000  3.045  0.000  0.008   1448.    286.      0.    282.      0.      4.   1.048   0.605   0.210   0.350   0.275   0.196   0.170   0.191
 2004 155   238  18.30  32.20  20.10  5.199  0.000  5.199  3.497  0.000  3.489  0.000  0.008   1453.    290.      0.    286.      0.      4.   1.118   0.707   0.243   0.423   0.330   0.235   0.204   0.229
 2004 156   239  13.90  31.10  24.00  3.894  0.000  3.894  3.240  0.000  3.233  0.000  0.007   1457.    293.      0.    289.      0.      4.   0.919   0.671   0.230   0.415   0.326   0.236   0.206   0.230
 2004 157   240  14.60  32.00  24.30  4.094  0.000  4.094  0.602  0.000  0.596  0.000  0.006   1461.    293.      0.    290.      0.      4.   0.494   0.065   0.011   0.013   0.007   0.003   0.002   0.001
 2004 158   241  21.20  33.50  24.00  6.001  0.000  6.001  0.559  0.000  0.553  0.000  0.006   1467.    294.      0.    290.      0.      4.   0.452   0.064   0.011   0.013   0.007   0.003   0.002   0.001
 2004 159   242  18.30  33.40  24.00  5.156  0.000  5.156  0.532  0.000  0.526  0.000  0.005   1472.    295.      0.    291.      0.      4.   0.425   0.064   0.011   0.013   0.007   0.003   0.002   0.001
 2004 160   243  17.50  33.10  22.50  4.859  0.000  4.859  0.508  0.000  0.501  0.000  0.007   1477.    295.      0.    291.      0.      4.   0.400   0.064   0.011   0.013   0.007   0.003   0.002   0.001
 2004 161   244  12.60  30.10  24.50  3.427  0.000  3.427  0.473  0.000  0.467  0.000  0.006   1481.    296.      0.    292.      0.      4.   0.366   0.063   0.011   0.013   0.007   0.003   0.002   0.001
 2004 162   245  20.70  33.80  23.20  5.780  0.000  5.780  0.441  0.000  0.435  0.000  0.006   1486.    296.      0.    292.      0.      4.   0.335   0.063   0.011   0.013   0.007   0.003   0.002   0.001
 2004 163   246  22.80  34.00  24.00  6.397  0.000  6.397  3.118  0.000  3.113  0.000  0.005   1493.    299.      0.    295.      0.      4.   0.835   0.659   0.228   0.411   0.320   0.232   0.202   0.227
 2004 164   247  12.40  30.00  21.80  3.405  0.000  3.405  3.240  0.000  3.233  0.000  0.007   1496.    302.      0.    298.      0.      4.   1.093   0.648   0.223   0.382   0.292   0.208   0.182   0.205
 2004 165   248  22.00  31.60  21.30  6.165  0.000  6.165  3.391  0.000  3.385  0.000  0.007   1502.    306.      0.    302.      0.      4.   1.031   0.713   0.252   0.424   0.324   0.224   0.196   0.221
 2004 166   249  20.50  33.50  23.50  5.849  0.000  5.849  4.053  0.000  4.046  0.000  0.007   1508.    310.      0.    306.      0.      4.   1.248   0.911   0.316   0.513   0.375   0.242   0.211   0.231
 2004 167   250  10.20  28.00  20.10  2.769  0.000  2.769  2.638  0.000  2.631  0.000  0.007   1511.    312.      0.    309.      0.      4.   0.762   0.562   0.235   0.349   0.266   0.164   0.142   0.152
 2004 168   251  17.50  31.00  20.50  4.832  0.000  4.832  3.568  0.000  3.561  0.000  0.007   1516.    316.      0.    312.      0.      4.   0.980   0.752   0.285   0.472   0.370   0.249   0.217   0.238
 2004 169   252  10.80  27.70  23.20  2.886  0.000  2.886  2.750  0.000  2.744  0.000  0.006   1519.    319.      0.    315.      0.      4.   0.778   0.565   0.212   0.356   0.282   0.196   0.169   0.185
 2004 170   253  22.90  32.60  22.60  6.498  0.000  6.498  3.346  0.000  3.339  0.000  0.006   1525.    322.      0.    318.      0.      4.   0.949   0.685   0.242   0.430   0.340   0.246   0.212   0.236
 2004 171   254  22.80  33.00  24.00  6.472  0.000  6.472  3.138  0.000  3.132  0.000  0.006   1532.    325.      0.    321.      0.      4.   0.819   0.649   0.230   0.418   0.333   0.241   0.209   0.233
 2004 172   255  22.60  32.80  23.50  6.336  0.000  6.336  3.387  0.000  3.381  0.000  0.006   1538.    329.      0.    325.      0.      4.   1.048   0.677   0.237   0.417   0.330   0.237   0.206   0.230
 2004 173   256  16.60  30.80  21.00  4.630  0.000  4.630  3.460  0.000  3.453  0.000  0.006   1543.    332.      0.    328.      0.      4.   1.078   0.711   0.248   0.422   0.331   0.235   0.202   0.227
 2004 174   257  19.20  31.50  20.40  5.270  0.000  5.270  3.232  0.000  3.226  0.000  0.006   1548.    335.      0.    331.      0.      4.   0.905   0.681   0.234   0.418   0.329   0.234   0.199   0.225
 2004 175   258  19.80  32.60  23.00  5.547  0.013  5.534  0.608  0.013  0.589  0.000  0.006   1553.    336.      0.    332.      0.      4.   0.486   0.065   0.011   0.013   0.007   0.003   0.002   0.001
 2004 176   259  18.60  31.40  23.60  5.145  0.026  5.119  0.578  0.026  0.547  0.000  0.005   1559.    336.      0.    332.      0.      4.   0.444   0.065   0.011   0.013   0.007   0.003   0.002   0.001
 2004 177   260  16.80  30.80  20.80  4.509  0.037  4.472  0.550  0.037  0.508  0.000  0.005   1563.    337.      0.    333.      0.      4.   0.406   0.065   0.011   0.013   0.007   0.003   0.002   0.001
 2004 178   261  16.60  32.80  23.00  4.600  0.080  4.520  3.410  0.080  3.325  0.000  0.005   1568.    340.      0.    336.      0.      4.   0.999   0.691   0.240   0.417   0.329   0.232   0.196   0.222
 2004 179   262  21.50  33.10  22.00  6.170  0.186  5.984  4.102  0.186  3.910  0.000  0.006   1574.    345.      0.    340.      0.      4.   1.435   0.778   0.277   0.436   0.337   0.236   0.195   0.219
 2004 180   263  14.20  30.20  23.80  4.028  0.165  3.862  3.670  0.165  3.499  0.000  0.006   1578.    348.      1.    344.      0.      4.   1.093   0.724   0.254   0.428   0.334   0.240   0.201   0.224
 2004 181   264  15.40  30.60  21.00  4.179  0.218  3.959  3.469  0.218  3.245  0.000  0.005   1582.    352.      1.    347.      0.      4.   0.907   0.683   0.234   0.418   0.329   0.238   0.206   0.230
 2004 182   265  14.20  31.30  22.70  3.887  0.240  3.647  3.728  0.240  3.483  0.000  0.005   1586.    355.      1.    350.      0.      4.   1.067   0.801   0.274   0.412   0.312   0.222   0.188   0.208
 2004 183   266  20.30  31.80  21.30  5.743  0.411  5.331  4.147  0.411  3.731  0.000  0.006   1592.    360.      1.    354.      0.      4.   1.113   0.842   0.286   0.451   0.345   0.246   0.213   0.233
 2004 184   267  16.40  31.00  23.00  4.516  0.381  4.133  3.710  0.381  3.323  0.000  0.005   1596.    363.      2.    357.      0.      4.   0.911   0.720   0.245   0.426   0.338   0.242   0.210   0.232
 2004 185   268   7.60  25.00  23.20  1.941  0.186  1.754  1.865  0.186  1.675  0.000  0.005   1598.    365.      2.    359.      0.      4.   0.526   0.366   0.130   0.196   0.152   0.108   0.093   0.103
 2004 186   269  17.20  30.90  21.00  4.805  0.497  4.305  4.466  0.497  3.963  0.000  0.005   1603.    370.      2.    363.      0.      4.   1.214   0.843   0.345   0.481   0.365   0.258   0.219   0.238
 2004 187   270  16.70  32.30  23.00  4.664  0.546  4.116  4.488  0.546  3.937  0.000  0.005   1608.    374.      3.    367.      0.      4.   1.198   0.880   0.325   0.493   0.376   0.239   0.205   0.221
 2004 188   271  19.90  32.50  23.20  5.685  0.747  4.935  5.426  0.747  4.675  0.000  0.005   1613.    380.      4.    372.      0.      4.   1.516   1.000   0.379   0.586   0.455   0.263   0.229   0.247
 2004 189   272  16.40  30.50  21.40  4.507  0.659  3.845  4.343  0.659  3.679  0.000  0.005   1618.    384.      4.    375.      0.      4.   1.081   0.751   0.315   0.481   0.388   0.236   0.205   0.222
 2004 190   273  13.40  29.80  22.50  3.610  0.582  3.025  3.482  0.582  2.894  0.000  0.005   1621.    387.      5.    378.      0.      4.   0.836   0.582   0.235   0.377   0.306   0.199   0.173   0.187
 2004 191   274  18.80  32.20  22.50  5.186  0.912  4.270  4.962  0.912  4.045  0.000  0.005   1627.    392.      6.    382.      0.      4.   1.325   0.790   0.313   0.488   0.391   0.263   0.229   0.247
 2004 192   275  13.30  29.10  21.50  3.578  0.699  2.875  3.456  0.699  2.752  0.000  0.005   1630.    396.      7.    385.      0.      4.   0.957   0.554   0.217   0.312   0.244   0.167   0.145   0.157
 2004 193   276  13.40  28.00  21.80  3.574  0.728  2.842  3.455  0.728  2.721  0.000  0.005   1634.    399.      7.    388.      0.      4.   0.845   0.557   0.231   0.335   0.259   0.176   0.153   0.165
 2004 194   277  15.30  28.80  20.00  3.991  0.866  3.121  3.860  0.866  2.989  0.000  0.005   1638.    403.      8.    391.      0.      4.   0.847   0.620   0.232   0.385   0.302   0.213   0.186   0.204
 2004 195   278  22.90  32.30  21.50  6.172  1.429  4.737  5.420  1.429  3.986  0.000  0.005   1644.    408.     10.    395.      0.      4.   1.229   0.886   0.322   0.475   0.361   0.254   0.219   0.239
 2004 196   279  11.40  27.70  20.60  2.977  0.722  2.252  2.883  0.722  2.156  0.000  0.005   1647.    411.     10.    397.      0.      4.   0.640   0.476   0.166   0.263   0.202   0.145   0.125   0.139
 2004 197   280  19.00  30.00  21.70  5.028  1.238  3.785  4.592  1.238  3.350  0.000  0.005   1652.    416.     12.    400.      0.      4.   0.931   0.716   0.246   0.427   0.338   0.244   0.211   0.237
 2004 198   281  17.60  30.50  22.80  4.666  1.193  3.467  4.285  1.193  3.088  0.000  0.004   1657.    420.     13.    403.      0.      4.   0.777   0.666   0.231   0.410   0.324   0.238   0.207   0.234
 2004 199   282  10.60  26.40  23.00  2.673  0.702  1.967  2.591  0.702  1.885  0.000  0.004   1659.    423.     13.    405.      0.      4.   0.600   0.395   0.138   0.223   0.172   0.125   0.108   0.123
 2004 200   283  16.00  30.50  20.40  4.311  1.130  3.176  4.181  1.130  3.046  0.000  0.005   1664.    427.     15.    408.      0.      4.   0.977   0.631   0.217   0.364   0.282   0.203   0.175   0.198
 2004 201   284  21.90  37.10  22.80  6.861  1.838  5.016  4.865  1.611  3.249  0.000  0.004   1670.    432.     16.    412.      0.      4.   0.926   0.679   0.232   0.414   0.325   0.236   0.206   0.230
 2004 202   285  14.10  29.00  22.00  3.646  1.006  2.635  1.586  1.006  0.576  0.000  0.004   1674.    433.     17.    412.      0.      4.   0.476   0.063   0.011   0.013   0.006   0.003   0.002   0.001
 2004 203   286  10.30  29.50  22.10  2.670  0.735  1.931  2.591  0.735  1.852  0.000  0.004   1677.    436.     18.    414.      0.      4.   0.595   0.390   0.135   0.219   0.168   0.121   0.105   0.118
 2004 204   287  19.10  29.80  21.60  5.143  1.404  3.733  4.923  1.351  3.567  0.000  0.004   1682.    441.     19.    418.      0.      4.   1.141   0.745   0.255   0.426   0.330   0.237   0.204   0.229
 2004 205   288  22.20  31.00  21.60  5.899  1.640  4.252  4.553  1.318  3.231  0.000  0.004   1688.    446.     21.    421.      0.      4.   0.915   0.679   0.232   0.413   0.321   0.235   0.205   0.230
 2004 206   289  10.50  28.50  21.60  2.691  0.760  1.928  1.337  0.760  0.574  0.000  0.004   1691.    447.     21.    421.      0.      4.   0.474   0.064   0.011   0.013   0.006   0.003   0.002   0.001
 2004 207   290  19.00  30.40  21.50  4.952  1.378  3.568  1.507  0.980  0.523  0.000  0.004   1695.    448.     22.    422.      0.      4.   0.424   0.062   0.010   0.013   0.006   0.003   0.002   0.001
 2004 208   291  17.50  30.50  21.30  4.545  1.271  3.268  1.341  0.858  0.480  0.000  0.003   1700.    450.     23.    422.      0.      4.   0.384   0.060   0.010   0.012   0.006   0.003   0.002   0.001
 2004 209   292  14.20  31.50  23.00  3.763  1.051  2.708  3.314  0.708  2.603  0.000  0.003   1704.    453.     24.    425.      0.      4.   0.835   0.524   0.176   0.314   0.236   0.180   0.158   0.179
 2004 210   293  15.40  30.30  22.80  4.190  1.159  3.026  3.834  0.923  2.907  0.000  0.004   1708.    457.     25.    428.      0.      4.   1.033   0.588   0.201   0.331   0.238   0.180   0.158   0.179
 2004 211   294  18.20  29.60  20.90  4.782  1.317  3.459  4.202  0.913  3.285  0.000  0.004   1713.    461.     26.    431.      0.      4.   0.985   0.689   0.238   0.417   0.314   0.224   0.195   0.222
 2004 212   295  14.30  29.00  21.60  3.700  1.020  2.676  3.582  1.006  2.572  0.000  0.004   1716.    465.     27.    434.      0.      4.   0.761   0.534   0.184   0.326   0.259   0.179   0.154   0.176
 2004 213   296  15.70  31.00  21.50  4.172  1.141  3.026  3.860  0.946  2.909  0.000  0.004   1721.    469.     28.    437.      0.      4.   0.945   0.595   0.203   0.353   0.270   0.190   0.164   0.188
 2004 214   297  23.90  31.70  22.50  6.488  1.772  4.709  4.101  0.882  3.215  0.000  0.004   1727.    473.     29.    440.      0.      4.   0.969   0.680   0.230   0.412   0.307   0.216   0.186   0.215
 2004 215   298  18.30  31.50  23.50  4.929  1.354  3.570  4.350  0.911  3.435  0.000  0.004   1732.    477.     30.    443.      0.      4.   1.167   0.717   0.248   0.409   0.308   0.204   0.177   0.205
 2004 216   299  23.40  30.60  21.70  6.341  1.724  4.609  4.892  0.979  3.909  0.000  0.004   1738.    482.     30.    447.      0.      4.   1.412   0.810   0.296   0.445   0.337   0.219   0.180   0.210
 2004 217   300  12.10  27.00  21.90  3.126  0.847  2.275  3.039  0.847  2.188  0.000  0.004   1741.    485.     31.    449.      0.      4.   0.721   0.490   0.175   0.269   0.195   0.126   0.103   0.110
 2004 218   301  18.30  30.20  20.50  4.915  1.309  3.601  4.576  1.106  3.467  0.000  0.004   1746.    489.     32.    453.      0.      4.   1.156   0.729   0.286   0.434   0.319   0.198   0.169   0.176
 2004 219   302  14.50  27.60  21.70  3.807  1.006  2.797  3.702  1.006  2.692  0.000  0.004   1750.    493.     33.    456.      0.      4.   0.768   0.550   0.232   0.358   0.285   0.177   0.154   0.167
 2004 220   303  22.10  31.60  22.50  5.986  1.565  4.414  4.698  1.020  3.674  0.000  0.004   1756.    498.     34.    459.      0.      4.   1.019   0.736   0.294   0.489   0.397   0.263   0.228   0.247
 2004 221   304  12.00  26.00  22.00  3.027  0.789  2.234  2.944  0.789  2.150  0.000  0.004   1759.    501.     35.    461.      0.      4.   0.643   0.475   0.173   0.267   0.209   0.136   0.119   0.128
 2004 222   305  14.20  39.60  20.70  5.102  1.313  3.784  4.648  0.998  3.646  0.000  0.004   1764.    505.     36.    465.      0.      4.   1.080   0.806   0.273   0.447   0.345   0.237   0.211   0.246
 2004 223   306  11.10  28.50  22.40  2.904  0.739  2.162  2.824  0.739  2.082  0.000  0.004   1767.    508.     37.    467.      0.      4.   0.570   0.446   0.152   0.268   0.210   0.151   0.132   0.153
 2004 224   307  10.10  25.50  22.70  2.546  0.639  1.905  2.476  0.639  1.834  0.000  0.003   1770.    511.     38.    469.      0.      4.   0.565   0.376   0.131   0.225   0.176   0.127   0.110   0.125
 2004 225   308  17.50  29.00  22.00  4.657  1.151  3.500  4.263  0.885  3.374  0.000  0.004   1774.    515.     39.    472.      0.      4.   1.021   0.686   0.236   0.418   0.330   0.240   0.207   0.235
 2004 226   309  23.70  31.70  21.00  6.335  1.561  4.767  4.970  0.912  4.055  0.000  0.003   1781.    520.     39.    476.      0.      4.   1.240   0.895   0.306   0.507   0.396   0.251   0.218   0.241
 2004 227   310  12.10  29.40  19.60  3.208  0.768  2.436  3.120  0.768  2.348  0.000  0.004   1784.    523.     40.    479.      0.      4.   0.674   0.513   0.175   0.299   0.234   0.152   0.144   0.158
 2004 228   311  23.40  31.00  21.50  6.279  1.462  4.811  5.181  0.917  4.261  0.000  0.003   1790.    528.     41.    483.      0.      4.   1.299   0.972   0.331   0.527   0.399   0.255   0.230   0.248
 2004 229   312  19.90  30.20  19.80  5.342  1.208  4.129  4.746  0.968  3.775  0.000  0.004   1796.    533.     42.    487.      0.      4.   1.097   0.835   0.284   0.476   0.363   0.248   0.216   0.256
 2004 230   313  13.70  29.00  22.70  3.625  0.796  2.825  3.525  0.796  2.725  0.000  0.003   1799.    537.     43.    489.      0.      4.   0.739   0.583   0.199   0.355   0.277   0.198   0.173   0.200
 2004 231   314  16.70  30.10  21.50  4.407  0.940  3.463  3.994  0.861  3.130  0.000  0.003   1804.    541.     44.    493.      0.      4.   0.786   0.671   0.229   0.422   0.331   0.239   0.209   0.243
 2004 232   315  23.30  32.20  21.60  6.259  1.296  4.957  3.902  0.723  3.175  0.000  0.003   1810.    544.     44.    496.      0.      4.   0.885   0.657   0.224   0.409   0.321   0.235   0.205   0.239
 2004 233   316  13.60  27.50  22.60  3.559  0.715  2.841  3.460  0.715  2.741  0.000  0.003   1813.    548.     45.    499.      0.      4.   0.800   0.566   0.189   0.342   0.268   0.199   0.174   0.204
 2004 234   317  10.80  29.60  22.40  2.864  0.559  2.302  2.784  0.559  2.222  0.000  0.003   1816.    551.     46.    501.      0.      4.   0.598   0.466   0.155   0.286   0.226   0.169   0.148   0.174
 2004 235   318  11.70  30.40  22.80  3.125  0.592  2.530  2.959  0.514  2.443  0.000  0.003   1819.    554.     46.    503.      0.      4.   0.727   0.546   0.184   0.308   0.239   0.154   0.134   0.151
 2004 236   319  11.30  26.30  20.40  2.955  0.544  2.409  2.872  0.544  2.325  0.000  0.003   1822.    557.     47.    506.      0.      4.   0.712   0.488   0.201   0.299   0.237   0.139   0.121   0.130
 2004 237   320  18.90  27.90  20.30  4.968  0.888  4.076  4.401  0.757  3.640  0.000  0.003   1827.    561.     48.    509.      0.      4.   1.031   0.761   0.287   0.474   0.376   0.249   0.217   0.245
 2004 238   321  22.60  32.20  22.00  6.187  1.075  5.107  4.758  0.875  3.879  0.000  0.003   1834.    566.     48.    513.      0.      4.   1.240   0.788   0.299   0.469   0.370   0.254   0.217   0.243
 2004 239   322  16.10  29.10  21.80  4.383  0.740  3.640  4.259  0.740  3.517  0.000  0.003   1838.    570.     49.    517.      0.      4.   1.141   0.710   0.276   0.418   0.326   0.233   0.198   0.216
 2004 240   323  19.50  30.40  22.50  5.330  0.874  4.453  4.297  0.874  3.421  0.000  0.003   1843.    574.     50.    520.      0.      4.   0.978   0.703   0.255   0.436   0.343   0.248   0.215   0.242
 2004 241   324  12.80  29.00  23.40  3.420  0.544  2.873  3.323  0.544  2.776  0.000  0.003   1847.    578.     51.    523.      0.      4.   0.785   0.566   0.203   0.356   0.281   0.205   0.178   0.203
 2004 242   325  21.80  32.00  21.60  5.971  0.922  5.044  4.334  0.922  3.408  0.000  0.003   1853.    582.     52.    526.      0.      4.   1.048   0.684   0.238   0.420   0.331   0.239   0.208   0.239
 2004 243   326  24.40  31.50  21.90  6.702  1.005  5.693  4.263  1.005  3.255  0.000  0.003   1859.    586.     53.    529.      0.      4.   0.940   0.669   0.229   0.415   0.327   0.235   0.205   0.236
 2004 244   327  15.20  31.20  21.50  4.103  0.597  3.503  3.987  0.597  3.387  0.000  0.003   1863.    590.     53.    533.      0.      4.   1.057   0.763   0.266   0.397   0.301   0.213   0.182   0.208
 2004 245   328  16.40  30.90  22.10  4.594  0.649  3.943  4.349  0.649  3.697  0.000  0.003   1868.    595.     54.    537.      0.      4.   1.113   0.826   0.286   0.445   0.340   0.244   0.209   0.234
 2004 246   329  10.70  25.00  22.00  2.735  0.375  2.358  2.658  0.375  2.280  0.000  0.003   1871.    597.     54.    539.      0.      4.   0.703   0.529   0.182   0.275   0.202   0.139   0.120   0.131
 2004 247   330  23.90  31.60  20.10  6.681  0.888  5.789  5.625  0.888  4.734  0.000  0.003   1877.    603.     55.    544.      0.      4.   1.554   1.064   0.383   0.578   0.419   0.264   0.229   0.244
 2004 248   331  18.00  29.50  20.40  4.900  0.632  4.265  4.670  0.632  4.036  0.000  0.003   1882.    607.     56.    548.      0.      4.   1.131   0.844   0.354   0.541   0.428   0.262   0.228   0.246
 2004 249   332  24.30  31.70  20.00  6.609  0.826  5.779  4.267  0.826  3.437  0.000  0.003   1889.    612.     56.    551.      0.      4.   0.919   0.719   0.271   0.461   0.365   0.248   0.216   0.238
 2004 250   333  16.30  29.40  23.50  4.392  0.532  3.857  3.933  0.532  3.398  0.000  0.003   1893.    616.     57.    554.      0.      4.   0.954   0.692   0.256   0.443   0.352   0.247   0.214   0.239
 2004 251   334  15.00  30.80  20.00  4.052  0.476  3.574  3.937  0.476  3.458  0.000  0.003   1897.    620.     57.    558.      0.      4.   1.094   0.683   0.245   0.421   0.334   0.241   0.208   0.232
 2004 252   335  20.80  30.80  22.50  5.759  0.656  5.101  4.004  0.656  3.346  0.000  0.003   1903.    624.     58.    561.      0.      4.   0.975   0.681   0.236   0.425   0.336   0.245   0.212   0.236
 2004 253   336  14.90  31.00  22.60  4.076  0.450  3.625  3.558  0.450  3.105  0.000  0.003   1907.    627.     59.    564.      0.      4.   0.827   0.635   0.224   0.411   0.327   0.241   0.208   0.233
 2004 254   337  14.70  31.60  21.20  3.982  0.425  3.555  0.963  0.425  0.535  0.000  0.003   1911.    628.     59.    565.      0.      4.   0.438   0.060   0.010   0.013   0.007   0.003   0.002   0.002
 2004 255   338  12.50  29.80  23.50  3.366  0.348  3.016  3.271  0.348  2.921  0.000  0.002   1915.    631.     59.    568.      0.      4.   0.924   0.610   0.215   0.347   0.270   0.197   0.169   0.189
 2004 256   339  13.10  28.40  21.20  3.585  0.359  3.224  3.484  0.359  3.122  0.000  0.003   1918.    635.     60.    571.      0.      4.   1.115   0.644   0.239   0.345   0.261   0.186   0.158   0.174
 2004 257   340  21.90  32.10  22.10  6.223  0.603  5.617  4.981  0.603  4.375  0.000  0.003   1924.    640.     60.    575.      0.      4.   1.460   0.959   0.353   0.508   0.377   0.257   0.221   0.239
 2004 258   341  24.00  22.00  21.30  6.088  0.571  5.514  4.972  0.571  4.398  0.000  0.003   1930.    645.     61.    580.      0.      4.   1.421   0.921   0.378   0.538   0.403   0.262   0.228   0.246
 2004 259   342  14.80  29.80  21.80  4.083  0.371  3.710  3.968  0.371  3.594  0.000  0.003   1935.    649.     61.    583.      0.      4.   1.131   0.794   0.300   0.447   0.337   0.208   0.181   0.196
 2004 260   343  13.00  29.60  20.00  3.575  0.315  3.258  3.474  0.315  3.157  0.000  0.003   1938.    652.     62.    586.      0.      4.   0.915   0.690   0.235   0.400   0.308   0.205   0.192   0.213
 2004 261   344  19.20  32.00  21.30  5.329  0.454  4.872  3.847  0.454  3.390  0.000  0.003   1943.    656.     62.    590.      0.      4.   0.925   0.722   0.247   0.441   0.345   0.245   0.219   0.247
 2004 262   345  24.70  33.00  23.80  6.974  0.575  6.397  3.733  0.575  3.155  0.000  0.002   1950.    660.     63.    593.      0.      4.   0.789   0.677   0.230   0.427   0.336   0.240   0.212   0.244
 2004 263   346  18.80  32.00  23.30  5.201  0.415  4.784  4.035  0.415  3.618  0.000  0.002   1956.    664.     63.    597.      0.      4.   1.137   0.755   0.263   0.433   0.336   0.241   0.210   0.242
 2004 264   347  14.30  26.50  20.40  3.820  0.294  3.524  3.713  0.294  3.416  0.000  0.003   1959.    668.     63.    600.      0.      4.   1.219   0.693   0.257   0.378   0.288   0.206   0.176   0.199
 2004 265   348  11.60  27.10  21.20  3.117  0.232  2.884  3.030  0.232  2.795  0.000  0.003   1963.    671.     64.    603.      0.      4.   0.936   0.562   0.220   0.328   0.251   0.179   0.152   0.167
 2004 266   349  23.90  31.20  20.50  6.652  0.479  6.171  3.961  0.479  3.479  0.000  0.003   1969.    675.     64.    606.      0.      4.   1.025   0.713   0.259   0.438   0.343   0.248   0.213   0.239
 2004 267   350  24.80  32.80  20.80  6.894  0.479  6.413  3.976  0.479  3.495  0.000  0.002   1976.    679.     65.    610.      0.      4.   1.074   0.704   0.255   0.431   0.338   0.245   0.211   0.238
 2004 268   351  21.80  31.80  21.70  6.121  0.425  5.694  3.768  0.425  3.341  0.000  0.003   1982.    682.     65.    613.      0.      4.   0.979   0.681   0.237   0.424   0.332   0.242   0.209   0.237
 2004 269   352  25.20  31.20  21.80  6.922  0.481  6.439  3.595  0.481  3.111  0.000  0.002   1989.    686.     65.    616.      0.      4.   0.836   0.639   0.226   0.410   0.324   0.237   0.205   0.234
 2004 270   353  13.00  29.00  23.00  3.492  0.243  3.248  3.396  0.243  3.151  0.000  0.002   1993.    689.     66.    619.      0.      4.   1.007   0.626   0.218   0.384   0.294   0.218   0.189   0.216
 2004 271   354  22.30  32.40  19.90  6.291  0.437  5.852  3.945  0.437  3.506  0.000  0.003   1999.    693.     66.    623.      0.      4.   1.148   0.717   0.249   0.421   0.314   0.229   0.199   0.228
 2004 272   355  25.10  34.80  23.00  7.280  0.506  6.772  3.701  0.470  3.229  0.000  0.002   2006.    697.     67.    626.      0.      4.   0.926   0.686   0.234   0.418   0.320   0.225   0.196   0.225
 2004 273   356  24.30  35.30  23.10  7.105  0.494  6.609  3.969  0.442  3.525  0.000  0.002   2013.    701.     67.    630.      0.      4.   1.183   0.712   0.247   0.420   0.327   0.220   0.193   0.222
 2004 274   357  21.40  31.50  22.50  6.129  0.426  5.701  3.843  0.404  3.436  0.000  0.002   2019.    705.     67.    633.      0.      4.   1.096   0.698   0.240   0.420   0.329   0.228   0.199   0.225
 2004 275   358  25.60  32.50  21.50  7.160  0.497  6.660  3.575  0.376  3.197  0.000  0.002   2027.    708.     68.    636.      0.      4.   0.908   0.661   0.229   0.407   0.323   0.236   0.206   0.228
 2004 276   359  22.20  32.60  21.30  6.148  0.427  5.719  0.901  0.316  0.582  0.000  0.002   2033.    709.     68.    637.      0.      4.   0.482   0.063   0.011   0.013   0.006   0.003   0.002   0.001
 2004 277   360  25.50  34.50  22.50  7.232  0.502  6.727  0.792  0.253  0.536  0.000  0.002   2040.    710.     68.    637.      0.      4.   0.437   0.063   0.011   0.012   0.006   0.003   0.002   0.001
 2004 278   361  20.80  33.50  24.10  5.881  0.409  5.471  0.774  0.216  0.556  0.000  0.002   2046.    711.     69.    638.      0.      4.   0.458   0.062   0.010   0.012   0.006   0.003   0.002   0.001
 2004 279   362  19.50  31.30  21.50  5.333  0.370  4.961  0.798  0.222  0.574  0.000  0.002   2051.    712.     69.    639.      0.      4.   0.477   0.061   0.010   0.012   0.006   0.003   0.002   0.001
 2004 280   363  24.90  33.00  22.50  6.953  0.483  6.468  0.710  0.177  0.530  0.000  0.002   2058.    712.     69.    639.      0.      4.   0.434   0.060   0.010   0.012   0.006   0.003   0.002   0.001
 2004 281   364  24.90  34.60  23.00  7.067  0.491  6.574  0.640  0.147  0.491  0.000  0.002   2065.    713.     69.    640.      0.      4.   0.396   0.059   0.010   0.012   0.006   0.003   0.002   0.001
 2004 282   365  23.30  34.50  23.50  6.607  0.459  6.146  0.583  0.124  0.457  0.000  0.002   2072.    714.     69.    640.      0.      4.   0.362   0.059   0.010   0.012   0.006   0.003   0.002   0.001
 2004 283   366  23.30  34.20  23.30  6.558  0.456  6.101  0.533  0.106  0.425  0.000  0.002   2078.    714.     69.    640.      0.      4.   0.331   0.058   0.010   0.012   0.006   0.003   0.002   0.001
 2004 284   367  21.90  34.40  23.50  6.169  0.429  5.738  0.488  0.090  0.396  0.000  0.002   2085.    715.     69.    641.      0.      4.   0.303   0.058   0.010   0.012   0.006   0.003   0.002   0.001
 2004 285   368  17.80  32.50  22.00  4.854  0.337  4.515  0.657  0.078  0.578  0.000  0.002   2089.    715.     70.    641.      0.      4.   0.480   0.062   0.010   0.012   0.006   0.003   0.002   0.001
 2004 286   369  24.90  35.00  22.00  7.217  0.501  6.714  3.283  0.116  3.165  0.000  0.002   2097.    719.     70.    645.      0.      4.   0.947   0.663   0.206   0.385   0.307   0.231   0.202   0.225
 2004 287   370  25.20  34.60  23.00  7.230  0.502  6.726  0.711  0.103  0.606  0.000  0.002   2104.    719.     70.    645.      0.      4.   0.506   0.064   0.010   0.012   0.006   0.003   0.002   0.001
 2004 288   371  22.60  34.50  24.60  6.520  0.453  6.065  0.645  0.083  0.560  0.000  0.002   2110.    720.     70.    646.      0.      4.   0.461   0.064   0.010   0.012   0.006   0.003   0.002   0.001
 2004 289   372  23.00  33.60  23.50  6.502  0.452  6.048  0.590  0.069  0.519  0.000  0.002   2117.    720.     70.    646.      0.      4.   0.421   0.063   0.010   0.012   0.006   0.003   0.002   0.001
 2004 290   373  23.90  35.10  23.00  6.845  0.476  6.367  0.545  0.061  0.482  0.000  0.002   2124.    721.     70.    647.      0.      4.   0.385   0.063   0.010   0.012   0.006   0.003   0.002   0.001
 2004 291   374  22.10  35.00  23.60  6.300  0.438  5.860  0.505  0.055  0.449  0.000  0.002   2130.    722.     70.    647.      0.      4.   0.352   0.062   0.010   0.012   0.006   0.003   0.002   0.001
 2004 292   375  24.20  36.00  23.30  7.250  0.504  6.744  0.470  0.050  0.418  0.000  0.002   2137.    722.     70.    648.      0.      4.   0.322   0.062   0.010   0.012   0.006   0.003   0.002   0.001
 2004 293   376  25.90  36.30  23.00  7.847  0.545  7.300  0.437  0.045  0.390  0.000  0.002   2145.    722.     70.    648.      0.      4.   0.295   0.061   0.010   0.012   0.006   0.003   0.002   0.001
 2004 294   377  25.80  37.00  23.20  8.099  0.563  7.534  0.405  0.038  0.365  0.000  0.002   2153.    723.     70.    648.      0.      4.   0.270   0.061   0.010   0.012   0.006   0.003   0.002   0.001

*DSSAT Cropping System Model Ver. 4.5.1.023 -Stub         NOV 07, 2014; 01:44:25
                                                                                
*RUN   2        : N0 P60                    MZCER045 GHWA0401    2              
 MODEL          : MZCER045 - Maize                                              
 EXPERIMENT     : GHWA0401 MZ ON-STATION NXP (EXPERIMENT NO.2) 9 TRT            
 DATA PATH      :                                                               
 TREATMENT  2   : N0 P60                    MZCER045                            
  
!                                                                                                                                                Soil evaporation (mm/d) by soil depth (cm):
!                                                                                                                                                0-5    5-15   15-20   20-30   30-40   40-50   50-60   60-90
@YEAR DOY   DAS   SRAA  TMAXA  TMINA   EOAA   EOPA   EOSA   ETAA   EPAA   ESAA   EFAA   EMAA    EOAC    ETAC    EPAC    ESAC    EFAC    EMAC    ES1D    ES2D    ES3D    ES4D    ES5D    ES6D    ES7D    ES8D    
 2003 283     1  23.30  34.50  23.90  5.580  0.000  5.580  0.838  0.000  0.634  0.000  0.204    5.58    0.84    0.00    0.63    0.00    0.20   0.531   0.066   0.011   0.013   0.007   0.003   0.002   0.001
[...]
 2004 198   281  17.60  30.50  22.80  4.360  2.683  1.665  4.132  2.683  1.413  0.000  0.035   1490.    388.     23.    344.      0.     21.   0.388   0.281   0.101   0.185   0.147   0.108   0.094   0.108
 2004 199   282  10.60  26.40  23.00  2.504  1.624  0.872  2.384  1.624  0.731  0.000  0.028   1492.    390.     25.    345.      0.     21.   0.245   0.143   0.051   0.085   0.067   0.049   0.042   0.049
 2004 200   283  16.00  30.50  20.40  3.923  2.650  1.261  3.749  2.650  1.049  0.000  0.049   1496.    394.     27.    346.      0.     21.   0.340   0.214   0.073   0.124   0.097   0.071   0.061   0.070
 2004 201   284  21.90  37.10  22.80  6.337  4.451  1.869  6.081  4.451  1.589  0.000  0.041   1503.    400.     32.    348.      0.     21.   0.469   0.320   0.112   0.200   0.156   0.116   0.100   0.115
 2004 202   285  14.10  29.00  22.00  3.385  2.475  0.899  3.259  2.475  0.751  0.000  0.033   1506.    403.     34.    348.      0.     21.   0.215   0.137   0.052   0.099   0.078   0.059   0.052   0.059
 2004 203   286  10.30  29.50  22.10  2.482  1.866  0.607  2.396  1.866  0.503  0.000  0.027   1508.    406.     36.    349.      0.     21.   0.173   0.096   0.034   0.058   0.044   0.034   0.029   0.034
 2004 204   287  19.10  29.80  21.60  4.635  3.566  1.053  4.486  3.566  0.873  0.000  0.048   1513.    410.     40.    350.      0.     21.   0.284   0.181   0.060   0.103   0.079   0.058   0.051   0.058
 2004 205   288  22.20  31.00  21.60  5.418  4.270  1.129  5.257  4.270  0.948  0.000  0.039   1518.    415.     44.    351.      0.     21.   0.282   0.191   0.065   0.117   0.094   0.070   0.061   0.068
 2004 206   289  10.50  28.50  21.60  2.485  2.002  0.475  2.417  2.002  0.383  0.000  0.032   1521.    418.     46.    351.      0.     21.   0.328   0.034   0.006   0.007   0.004   0.002   0.001   0.001
 2004 207   290  19.00  30.40  21.50  4.581  3.745  0.819  4.356  3.745  0.585  0.000  0.027   1526.    422.     50.    352.      0.     21.   0.499   0.052   0.009   0.012   0.006   0.003   0.002   0.002
 2004 208   291  17.50  30.50  21.30  4.208  3.498  0.694  4.006  3.498  0.486  0.000  0.022   1530.    426.     53.    352.      0.     21.   0.408   0.046   0.008   0.011   0.006   0.003   0.002   0.002
 2004 209   292  14.20  31.50  23.00  3.487  2.942  0.532  2.757  2.290  0.448  0.000  0.018   1533.    429.     55.    353.      0.     21.   0.156   0.081   0.023   0.049   0.041   0.034   0.030   0.035
 2004 210   293  15.40  30.30  22.80  3.754  3.184  0.557  3.672  3.184  0.444  0.000  0.045   1537.    433.     59.    353.      0.     21.   0.171   0.090   0.024   0.041   0.034   0.029   0.026   0.030
 2004 211   294  18.20  29.60  20.90  4.331  3.719  0.595  4.241  3.719  0.483  0.000  0.039   1541.    437.     62.    354.      0.     21.   0.160   0.099   0.034   0.048   0.040   0.035   0.031   0.036
 2004 212   295  14.30  29.00  21.60  3.388  2.943  0.432  3.322  2.943  0.347  0.000  0.032   1545.    440.     65.    354.      0.     21.   0.118   0.068   0.022   0.035   0.029   0.025   0.022   0.026
 2004 213   296  15.70  31.00  21.50  3.798  3.329  0.454  3.728  3.329  0.355  0.000  0.044   1549.    444.     69.    354.      0.     21.   0.130   0.070   0.020   0.034   0.028   0.025   0.022   0.026
 2004 214   297  23.90  31.70  22.50  5.866  5.202  0.642  5.767  5.202  0.524  0.000  0.041   1554.    450.     74.    355.      0.     21.   0.178   0.105   0.033   0.053   0.044   0.038   0.034   0.040
 2004 215   298  18.30  31.50  23.50  4.503  4.033  0.453  3.636  3.238  0.365  0.000  0.034   1559.    453.     77.    355.      0.     21.   0.140   0.070   0.022   0.035   0.028   0.024   0.021   0.025
 2004 216   299  23.40  30.60  21.70  5.644  5.067  0.555  5.556  5.067  0.446  0.000  0.043   1565.    459.     82.    356.      0.     21.   0.172   0.093   0.031   0.043   0.030   0.026   0.023   0.028
 2004 217   300  12.10  27.00  21.90  2.808  2.535  0.261  2.765  2.535  0.199  0.000  0.031   1567.    462.     85.    356.      0.     21.   0.072   0.043   0.015   0.022   0.015   0.011   0.009   0.011
 2004 218   301  18.30  30.20  20.50  4.356  3.950  0.389  4.292  3.950  0.300  0.000  0.043   1572.    466.     89.    356.      0.     21.   0.105   0.064   0.025   0.035   0.025   0.017   0.014   0.015
 2004 219   302  14.50  27.60  21.70  3.382  3.080  0.288  3.334  3.080  0.221  0.000  0.034   1575.    469.     92.    356.      0.     21.   0.066   0.045   0.019   0.028   0.022   0.015   0.013   0.013
 2004 220   303  22.10  31.60  22.50  5.404  4.939  0.443  5.331  4.939  0.355  0.000  0.036   1580.    475.     97.    357.      0.     21.   0.104   0.071   0.028   0.045   0.036   0.025   0.022   0.023
 2004 221   304  12.00  26.00  22.00  2.749  2.520  0.217  2.711  2.520  0.166  0.000  0.025   1583.    477.     99.    357.      0.     21.   0.053   0.036   0.013   0.019   0.015   0.010   0.009   0.010
 2004 222   305  14.20  39.60  20.70  4.503  4.139  0.348  4.447  4.139  0.267  0.000  0.040   1588.    482.    103.    357.      0.     22.   0.081   0.059   0.020   0.032   0.025   0.017   0.015   0.018
 2004 223   306  11.10  28.50  22.40  2.621  2.412  0.199  2.588  2.412  0.153  0.000  0.023   1590.    484.    106.    357.      0.     22.   0.044   0.032   0.011   0.019   0.015   0.011   0.010   0.011
 2004 224   307  10.10  25.50  22.70  2.311  2.128  0.173  2.281  2.128  0.133  0.000  0.020   1593.    487.    108.    357.      0.     22.   0.044   0.027   0.009   0.016   0.012   0.009   0.008   0.009
 2004 225   308  17.50  29.00  22.00  4.147  3.821  0.308  4.094  3.821  0.238  0.000  0.035   1597.    491.    112.    358.      0.     22.   0.074   0.048   0.016   0.029   0.023   0.017   0.015   0.017
 2004 226   309  23.70  31.70  21.00  5.732  5.291  0.418  5.662  5.291  0.337  0.000  0.033   1603.    496.    117.    358.      0.     22.   0.108   0.073   0.025   0.041   0.033   0.021   0.018   0.020
 2004 227   310  12.10  29.40  19.60  2.832  2.609  0.211  2.796  2.609  0.163  0.000  0.024   1605.    499.    120.    358.      0.     22.   0.049   0.035   0.012   0.020   0.016   0.011   0.010   0.011
 2004 228   311  23.40  31.00  21.50  5.641  5.191  0.427  5.570  5.191  0.345  0.000  0.034   1611.    505.    125.    358.      0.     22.   0.109   0.077   0.026   0.042   0.032   0.021   0.018   0.020
 2004 229   312  19.90  30.20  19.80  4.707  4.323  0.363  4.646  4.323  0.287  0.000  0.035   1616.    509.    129.    359.      0.     22.   0.087   0.062   0.021   0.035   0.027   0.019   0.016   0.019
 2004 230   313  13.70  29.00  22.70  3.261  2.992  0.256  3.219  2.992  0.199  0.000  0.029   1619.    513.    132.    359.      0.     22.   0.057   0.042   0.014   0.025   0.020   0.014   0.012   0.014
 2004 231   314  16.70  30.10  21.50  3.986  3.652  0.318  3.934  3.652  0.257  0.000  0.025   1623.    517.    136.    359.      0.     22.   0.073   0.053   0.018   0.032   0.026   0.019   0.017   0.019
 2004 232   315  23.30  32.20  21.60  5.690  5.208  0.460  5.617  5.208  0.388  0.000  0.021   1629.    522.    141.    360.      0.     22.   0.121   0.077   0.026   0.045   0.038   0.028   0.025   0.028
 2004 233   316  13.60  27.50  22.60  3.184  2.910  0.260  3.142  2.910  0.203  0.000  0.029   1632.    525.    144.    360.      0.     22.   0.063   0.041   0.013   0.023   0.019   0.015   0.013   0.015
 2004 234   317  10.80  29.60  22.40  2.581  2.358  0.213  2.548  2.358  0.166  0.000  0.023   1634.    528.    146.    360.      0.     22.   0.051   0.033   0.010   0.019   0.016   0.013   0.011   0.013
 2004 235   318  11.70  30.40  22.80  2.828  2.582  0.235  2.791  2.582  0.184  0.000  0.026   1637.    531.    149.    360.      0.     22.   0.058   0.039   0.013   0.022   0.017   0.012   0.010   0.011
 2004 236   319  11.30  26.30  20.40  2.573  2.347  0.214  2.538  2.347  0.168  0.000  0.023   1640.    533.    151.    360.      0.     22.   0.051   0.035   0.014   0.022   0.017   0.010   0.009   0.009
 2004 237   320  18.90  27.90  20.30  4.375  3.990  0.366  4.316  3.990  0.292  0.000  0.035   1644.    538.    155.    361.      0.     22.   0.085   0.060   0.023   0.038   0.030   0.020   0.017   0.020
 2004 238   321  22.60  32.20  22.00  5.541  5.052  0.467  5.469  5.052  0.387  0.000  0.029   1650.    543.    160.    361.      0.     22.   0.128   0.077   0.029   0.045   0.036   0.025   0.022   0.024
 2004 239   322  16.10  29.10  21.80  3.822  3.481  0.325  3.771  3.481  0.256  0.000  0.034   1654.    547.    164.    361.      0.     22.   0.086   0.051   0.020   0.029   0.023   0.017   0.014   0.016
 2004 240   323  19.50  30.40  22.50  4.713  4.290  0.405  4.651  4.290  0.329  0.000  0.033   1658.    551.    168.    362.      0.     22.   0.099   0.067   0.024   0.041   0.032   0.024   0.020   0.023
 2004 241   324  12.80  29.00  23.40  3.064  2.785  0.266  3.023  2.785  0.210  0.000  0.028   1661.    554.    171.    362.      0.     22.   0.064   0.042   0.015   0.026   0.020   0.015   0.013   0.015
 2004 242   325  21.80  32.00  21.60  5.322  4.831  0.469  5.251  4.831  0.386  0.000  0.033   1667.    560.    176.    362.      0.     22.   0.126   0.076   0.026   0.046   0.035   0.027   0.023   0.026
 2004 243   326  24.40  31.50  21.90  5.941  5.385  0.533  5.862  5.385  0.445  0.000  0.032   1673.    566.    181.    363.      0.     22.   0.136   0.090   0.031   0.055   0.041   0.033   0.028   0.033
 2004 244   327  15.20  31.20  21.50  3.675  3.324  0.336  3.625  3.324  0.274  0.000  0.027   1676.    569.    184.    363.      0.     22.   0.089   0.061   0.021   0.031   0.023   0.017   0.015   0.017
 2004 245   328  16.40  30.90  22.10  3.983  3.595  0.372  3.928  3.595  0.301  0.000  0.033   1680.    573.    188.    363.      0.     22.   0.093   0.067   0.023   0.036   0.027   0.020   0.017   0.019
 2004 246   329  10.70  25.00  22.00  2.429  2.186  0.233  2.394  2.186  0.184  0.000  0.024   1683.    576.    190.    363.      0.     22.   0.059   0.042   0.014   0.022   0.016   0.011   0.010   0.011
 2004 247   330  23.90  31.60  20.10  5.769  5.181  0.565  5.688  5.181  0.474  0.000  0.032   1688.    581.    195.    364.      0.     22.   0.157   0.106   0.038   0.058   0.041   0.026   0.023   0.024
 2004 248   331  18.00  29.50  20.40  4.257  3.811  0.429  4.195  3.811  0.355  0.000  0.030   1693.    585.    199.    364.      0.     22.   0.103   0.074   0.031   0.047   0.037   0.023   0.020   0.022
 2004 249   332  24.30  31.70  20.00  5.859  5.227  0.608  5.773  5.227  0.514  0.000  0.031   1699.    591.    204.    365.      0.     22.   0.144   0.106   0.040   0.068   0.054   0.037   0.032   0.035
 2004 250   333  16.30  29.40  23.50  3.928  3.491  0.422  3.869  3.491  0.352  0.000  0.027   1702.    595.    208.    365.      0.     22.   0.105   0.069   0.025   0.045   0.036   0.025   0.022   0.025
 2004 251   334  15.00  30.80  20.00  3.584  3.170  0.400  3.529  3.170  0.328  0.000  0.031   1706.    599.    211.    365.      0.     22.   0.110   0.063   0.022   0.039   0.031   0.022   0.019   0.022
 2004 252   335  20.80  30.80  22.50  5.067  4.460  0.588  4.988  4.460  0.499  0.000  0.029   1711.    604.    215.    366.      0.     22.   0.152   0.101   0.034   0.062   0.048   0.036   0.031   0.036
 2004 253   336  14.90  31.00  22.60  3.635  3.180  0.441  3.577  3.180  0.372  0.000  0.025   1715.    607.    219.    366.      0.     22.   0.108   0.073   0.025   0.047   0.038   0.028   0.025   0.029
 2004 254   337  14.70  31.60  21.20  3.574  3.104  0.456  3.515  3.104  0.389  0.000  0.021   1718.    611.    222.    367.      0.     22.   0.109   0.075   0.025   0.050   0.040   0.031   0.027   0.032
 2004 255   338  12.50  29.80  23.50  3.031  2.611  0.408  2.979  2.611  0.349  0.000  0.018   1721.    614.    224.    367.      0.     22.   0.118   0.070   0.023   0.040   0.030   0.023   0.020   0.024
 2004 256   339  13.10  28.40  21.20  3.097  2.643  0.441  3.041  2.643  0.369  0.000  0.029   1724.    617.    227.    367.      0.     22.   0.135   0.077   0.027   0.040   0.028   0.021   0.018   0.022
 2004 257   340  21.90  32.10  22.10  5.424  4.587  0.817  5.324  4.587  0.710  0.000  0.027   1730.    622.    231.    368.      0.     23.   0.246   0.156   0.056   0.081   0.058   0.040   0.034   0.039
 2004 258   341  24.00  22.00  21.30  5.291  4.415  0.853  5.184  4.415  0.741  0.000  0.029   1735.    627.    236.    369.      0.     23.   0.249   0.154   0.062   0.088   0.065   0.044   0.037   0.041
 2004 259   342  14.80  29.80  21.80  3.577  2.957  0.607  3.504  2.957  0.520  0.000  0.028   1739.    631.    239.    369.      0.     23.   0.170   0.114   0.042   0.063   0.047   0.030   0.026   0.028
 2004 260   343  13.00  29.60  20.00  3.104  2.527  0.565  3.037  2.527  0.482  0.000  0.028   1742.    634.    241.    370.      0.     23.   0.143   0.105   0.035   0.060   0.046   0.031   0.029   0.032
 2004 261   344  19.20  32.00  21.30  4.735  3.793  0.926  4.629  3.793  0.812  0.000  0.024   1747.    638.    245.    371.      0.     23.   0.229   0.171   0.058   0.104   0.081   0.057   0.052   0.059
 2004 262   345  24.70  33.00  23.80  6.260  4.910  1.330  6.111  4.910  1.181  0.000  0.021   1753.    644.    250.    372.      0.     23.   0.320   0.243   0.083   0.156   0.122   0.089   0.079   0.089
 2004 263   346  18.80  32.00  23.30  4.702  3.586  1.100  4.580  3.586  0.977  0.000  0.018   1758.    649.    254.    373.      0.     23.   0.322   0.197   0.067   0.115   0.088   0.065   0.057   0.066
 2004 264   347  14.30  26.50  20.40  3.344  2.468  0.865  3.249  2.468  0.754  0.000  0.027   1761.    652.    256.    374.      0.     23.   0.283   0.150   0.053   0.081   0.061   0.044   0.038   0.044
 2004 265   348  11.60  27.10  21.20  2.753  1.971  0.773  2.670  1.971  0.673  0.000  0.026   1764.    655.    258.    374.      0.     23.   0.238   0.134   0.051   0.076   0.058   0.042   0.035   0.040
 2004 266   349  23.90  31.20  20.50  5.915  4.080  1.817  5.724  4.080  1.617  0.000  0.027   1770.    661.    262.    376.      0.     23.   0.496   0.328   0.118   0.200   0.155   0.113   0.097   0.111
 2004 267   350  24.80  32.80  20.80  6.235  4.091  2.127  6.016  4.091  1.902  0.000  0.023   1776.    667.    266.    378.      0.     23.   0.611   0.374   0.132   0.230   0.178   0.131   0.114   0.131
 2004 268   351  21.80  31.80  21.70  5.480  3.595  1.869  5.288  3.595  1.666  0.000  0.027   1781.    672.    270.    379.      0.     23.   0.505   0.336   0.115   0.208   0.159   0.119   0.104   0.121
 2004 269   352  25.20  31.20  21.80  6.265  4.110  2.137  6.046  4.110  1.913  0.000  0.023   1788.    678.    274.    381.      0.     23.   0.540   0.381   0.130   0.250   0.188   0.146   0.128   0.150
 2004 270   353  13.00  29.00  23.00  3.174  2.082  1.083  3.063  2.082  0.962  0.000  0.020   1791.    681.    276.    382.      0.     23.   0.322   0.185   0.058   0.111   0.086   0.069   0.060   0.071
 2004 271   354  22.30  32.40  19.90  5.594  3.670  1.908  5.400  3.670  1.705  0.000  0.026   1796.    687.    280.    384.      0.     23.   0.596   0.352   0.108   0.180   0.139   0.113   0.099   0.119
 2004 272   355  25.10  34.80  23.00  6.551  4.299  2.235  6.326  4.299  2.003  0.000  0.024   1803.    693.    284.    386.      0.     23.   0.619   0.419   0.135   0.229   0.176   0.145   0.127   0.154
 2004 273   356  24.30  35.30  23.10  6.433  4.222  2.195  6.214  4.222  1.971  0.000  0.021   1809.    699.    288.    388.      0.     23.   0.705   0.388   0.120   0.206   0.160   0.133   0.117   0.143
 2004 274   357  21.40  31.50  22.50  5.411  3.550  1.846  5.226  3.550  1.651  0.000  0.025   1815.    704.    292.    390.      0.     23.   0.560   0.346   0.114   0.169   0.132   0.112   0.098   0.121
 2004 275   358  25.60  32.50  21.50  6.444  4.227  2.198  4.871  4.227  0.622  0.000  0.022   1821.    709.    296.    390.      0.     23.   0.534   0.057   0.009   0.010   0.005   0.003   0.002   0.001
 2004 276   359  22.20  32.60  21.30  5.564  3.650  1.898  3.272  2.773  0.479  0.000  0.019   1827.    712.    299.    391.      0.     23.   0.403   0.047   0.008   0.010   0.005   0.003   0.002   0.001
 2004 277   360  25.50  34.50  22.50  6.553  4.300  2.236  1.660  1.264  0.379  0.000  0.016   1833.    714.    300.    391.      0.     23.   0.309   0.042   0.007   0.010   0.005   0.003   0.002   0.001
 2004 278   361  20.80  33.50  24.10  5.344  3.507  1.823  1.380  0.967  0.399  0.000  0.014   1839.    715.    301.    391.      0.     23.   0.331   0.040   0.007   0.009   0.005   0.003   0.002   0.001
 2004 279   362  19.50  31.30  21.50  4.821  3.162  1.645  1.466  1.021  0.421  0.000  0.024   1843.    717.    302.    392.      0.     23.   0.356   0.039   0.006   0.009   0.005   0.003   0.002   0.001
 2004 280   363  24.90  33.00  22.50  6.301  4.134  2.149  1.140  0.750  0.369  0.000  0.021   1850.    718.    303.    392.      0.     23.   0.305   0.038   0.006   0.009   0.005   0.003   0.002   0.001
 2004 281   364  24.90  34.60  23.00  6.421  4.214  2.190  0.951  0.598  0.335  0.000  0.018   1856.    719.    303.    393.      0.     23.   0.273   0.037   0.006   0.009   0.005   0.003   0.002   0.001
 2004 282   365  23.30  34.50  23.50  6.019  3.950  2.053  0.872  0.545  0.311  0.000  0.016   1862.    720.    304.    393.      0.     23.   0.250   0.036   0.006   0.009   0.005   0.003   0.002   0.001
 2004 283   366  23.30  34.20  23.30  5.988  3.930  2.043  0.803  0.501  0.288  0.000  0.014   1868.    721.    304.    393.      0.     23.   0.228   0.035   0.006   0.009   0.004   0.003   0.002   0.001
 2004 284   367  21.90  34.40  23.50  5.644  3.704  1.925  0.744  0.464  0.268  0.000  0.012   1874.    721.    305.    393.      0.     23.   0.209   0.034   0.006   0.009   0.004   0.003   0.002   0.001
 2004 285   368  17.80  32.50  22.00  4.450  2.920  1.518  0.919  0.431  0.477  0.000  0.011   1878.    722.    305.    394.      0.     23.   0.416   0.037   0.006   0.009   0.004   0.003   0.002   0.001
 2004 286   369  24.90  35.00  22.00  6.472  4.247  2.208  4.963  2.951  1.988  0.000  0.023   1885.    727.    308.    396.      0.     23.   0.740   0.317   0.090   0.213   0.169   0.149   0.130   0.180
 2004 287   370  25.20  34.60  23.00  6.507  4.270  2.220  0.905  0.514  0.371  0.000  0.020   1891.    728.    309.    396.      0.     23.   0.309   0.038   0.005   0.008   0.004   0.003   0.002   0.001
 2004 288   371  22.60  34.50  24.60  5.888  3.864  2.009  0.770  0.414  0.338  0.000  0.018   1897.    729.    309.    397.      0.     23.   0.278   0.037   0.005   0.008   0.004   0.003   0.002   0.001
 2004 289   372  23.00  33.60  23.50  5.889  3.864  2.009  0.695  0.367  0.312  0.000  0.016   1903.    730.    310.    397.      0.     23.   0.253   0.036   0.005   0.008   0.004   0.003   0.002   0.001
 2004 290   373  23.90  35.10  23.00  6.217  4.080  2.121  0.632  0.329  0.290  0.000  0.014   1909.    730.    310.    397.      0.     23.   0.232   0.035   0.005   0.008   0.004   0.003   0.002   0.001
 2004 291   374  22.10  35.00  23.60  5.737  3.765  1.957  0.581  0.299  0.269  0.000  0.012   1915.    731.    310.    397.      0.     23.   0.212   0.035   0.005   0.008   0.004   0.003   0.002   0.001
 2004 292   375  24.20  36.00  23.30  6.617  4.342  2.257  0.547  0.286  0.251  0.000  0.010   1922.    731.    310.    398.      0.     23.   0.194   0.034   0.005   0.008   0.004   0.003   0.002   0.001
 2004 293   376  25.90  36.30  23.00  7.177  4.710  2.448  0.516  0.273  0.233  0.000  0.009   1929.    732.    311.    398.      0.     23.   0.178   0.033   0.005   0.008   0.004   0.003   0.002   0.001
 2004 294   377  25.80  37.00  23.20  7.422  4.871  2.532  0.487  0.262  0.218  0.000  0.008   1936.    732.    311.    398.      0.     23.   0.162   0.033   0.005   0.008   0.004   0.003   0.002   0.001
