*MANAGEMENT OPERATIONS DAILY OUTPUT FILE

*DSSAT Cropping System Model Ver. 4.5.1.023 -Stub         DEC 04, 2014; 01:35:45
                                                                                
*RUN   1        : N0 P0                     MZCER045 GHWA0401    1              
 MODEL          : MZCER045 - Maize                                              
 EXPERIMENT     : GHWA0401 MZ ON-STATION NXP (EXPERIMENT NO.2) 9 TRT            
 DATA PATH      :                                                               
 TREATMENT  1   : N0 P0                     MZCER045                            
  

@YEAR DOY   DAS   DAP  NAPC  NICM  PAPC  PICM  R#AC RESNC RESPC
 2003 283     1     0     0     0     0     0     0     0     0
 2003 284     2     0     0     0     0     0     0     0     0
 2003 285     3     0     0     0     0     0     0     0     0
 2003 286     4     0     0     0     0     0     0     0     0
 2003 287     5     0     0     0     0     0     0     0     0
 2003 288     6     0     0     0     0     0     0     0     0
 2003 289     7     0     0     0     0     0     0     0     0
 2003 290     8     0     0     0     0     0     0     0     0
 2003 291     9     0     0     0     0     0     0     0     0
 2003 292    10     0     0     0     0     0     0     0     0
 2003 293    11     0     0     0     0     0     0     0     0
 2003 294    12     0     0     0     0     0     0     0     0
 2003 295    13     0     0     0     0     0     0     0     0
 2003 296    14     0     0     0     0     0     0     0     0
 2003 297    15     0     0     0     0     0     0     0     0
 2003 298    16     0     0     0     0     0     0     0     0
 2003 299    17     0     0     0     0     0     0     0     0
 2003 300    18     0     0     0     0     0     0     0     0
 2003 301    19     0     0     0     0     0     0     0     0
 2003 302    20     0     0     0     0     0     0     0     0
 2003 303    21     0     0     0     0     0     0     0     0
 2003 304    22     0     0     0     0     0     0     0     0
 2003 305    23     0     0     0     0     0     0     0     0
 2003 306    24     0     0     0     0     0     0     0     0
 2003 307    25     0     0     0     0     0     0     0     0
 2003 308    26     0     0     0     0     0     0     0     0
 2003 309    27     0     0     0     0     0     0     0     0
 2003 310    28     0     0     0     0     0     0     0     0
 2003 311    29     0     0     0     0     0     0     0     0
 2003 312    30     0     0     0     0     0     0     0     0
 2003 313    31     0     0     0     0     0     0     0     0
 2003 314    32     0     0     0     0     0     0     0     0
 2003 315    33     0     0     0     0     0     0     0     0
 2003 316    34     0     0     0     0     0     0     0     0
 2003 317    35     0     0     0     0     0     0     0     0
 2003 318    36     0     0     0     0     0     0     0     0
 2003 319    37     0     0     0     0     0     0     0     0
 2003 320    38     0     0     0     0     0     0     0     0
 2003 321    39     0     0     0     0     0     0     0     0
 2003 322    40     0     0     0     0     0     0     0     0
 2003 323    41     0     0     0     0     0     0     0     0
 2003 324    42     0     0     0     0     0     0     0     0
 2003 325    43     0     0     0     0     0     0     0     0
 2003 326    44     0     0     0     0     0     0     0     0
 2003 327    45     0     0     0     0     0     0     0     0
 2003 328    46     0     0     0     0     0     0     0     0
 2003 329    47     0     0     0     0     0     0     0     0
 2003 330    48     0     0     0     0     0     0     0     0
 2003 331    49     0     0     0     0     0     0     0     0
 2003 332    50     0     0     0     0     0     0     0     0
 2003 333    51     0     0     0     0     0     0     0     0
 2003 334    52     0     0     0     0     0     0     0     0
 2003 335    53     0     0     0     0     0     0     0     0
 2003 336    54     0     0     0     0     0     0     0     0
 2003 337    55     0     0     0     0     0     0     0     0
 2003 338    56     0     0     0     0     0     0     0     0
 2003 339    57     0     0     0     0     0     0     0     0
 2003 340    58     0     0     0     0     0     0     0     0
 2003 341    59     0     0     0     0     0     0     0     0
 2003 342    60     0     0     0     0     0     0     0     0
 2003 343    61     0     0     0     0     0     0     0     0
 2003 344    62     0     0     0     0     0     0     0     0
 2003 345    63     0     0     0     0     0     0     0     0
 2003 346    64     0     0     0     0     0     0     0     0
 2003 347    65     0     0     0     0     0     0     0     0
 2003 348    66     0     0     0     0     0     0     0     0
 2003 349    67     0     0     0     0     0     0     0     0
 2003 350    68     0     0     0     0     0     0     0     0
 2003 351    69     0     0     0     0     0     0     0     0
 2003 352    70     0     0     0     0     0     0     0     0
 2003 353    71     0     0     0     0     0     0     0     0
 2003 354    72     0     0     0     0     0     0     0     0
 2003 355    73     0     0     0     0     0     0     0     0
 2003 356    74     0     0     0     0     0     0     0     0
 2003 357    75     0     0     0     0     0     0     0     0
 2003 358    76     0     0     0     0     0     0     0     0
 2003 359    77     0     0     0     0     0     0     0     0
 2003 360    78     0     0     0     0     0     0     0     0
 2003 361    79     0     0     0     0     0     0     0     0
 2003 362    80     0     0     0     0     0     0     0     0
 2003 363    81     0     0     0     0     0     0     0     0
 2003 364    82     0     0     0     0     0     0     0     0
 2003 365    83     0     0     0     0     0     0     0     0
 2004 001    84     0     0     0     0     0     0     0     0
 2004 002    85     0     0     0     0     0     0     0     0
 2004 003    86     0     0     0     0     0     0     0     0
 2004 004    87     0     0     0     0     0     0     0     0
 2004 005    88     0     0     0     0     0     0     0     0
 2004 006    89     0     0     0     0     0     0     0     0
 2004 007    90     0     0     0     0     0     0     0     0
 2004 008    91     0     0     0     0     0     0     0     0
 2004 009    92     0     0     0     0     0     0     0     0
 2004 010    93     0     0     0     0     0     0     0     0
 2004 011    94     0     0     0     0     0     0     0     0
 2004 012    95     0     0     0     0     0     0     0     0
 2004 013    96     0     0     0     0     0     0     0     0
 2004 014    97     0     0     0     0     0     0     0     0
 2004 015    98     0     0     0     0     0     0     0     0
 2004 016    99     0     0     0     0     0     0     0     0
 2004 017   100     0     0     0     0     0     0     0     0
 2004 018   101     0     0     0     0     0     0     0     0
 2004 019   102     0     0     0     0     0     0     0     0
 2004 020   103     0     0     0     0     0     0     0     0
 2004 021   104     0     0     0     0     0     0     0     0
 2004 022   105     0     0     0     0     0     0     0     0
 2004 023   106     0     0     0     0     0     0     0     0
 2004 024   107     0     0     0     0     0     0     0     0
 2004 025   108     0     0     0     0     0     0     0     0
 2004 026   109     0     0     0     0     0     0     0     0
 2004 027   110     0     0     0     0     0     0     0     0
 2004 028   111     0     0     0     0     0     0     0     0
 2004 029   112     0     0     0     0     0     0     0     0
 2004 030   113     0     0     0     0     0     0     0     0
 2004 031   114     0     0     0     0     0     0     0     0
 2004 032   115     0     0     0     0     0     0     0     0
 2004 033   116     0     0     0     0     0     0     0     0
 2004 034   117     0     0     0     0     0     0     0     0
 2004 035   118     0     0     0     0     0     0     0     0
 2004 036   119     0     0     0     0     0     0     0     0
 2004 037   120     0     0     0     0     0     0     0     0
 2004 038   121     0     0     0     0     0     0     0     0
 2004 039   122     0     0     0     0     0     0     0     0
 2004 040   123     0     0     0     0     0     0     0     0
 2004 041   124     0     0     0     0     0     0     0     0
 2004 042   125     0     0     0     0     0     0     0     0
 2004 043   126     0     0     0     0     0     0     0     0
 2004 044   127     0     0     0     0     0     0     0     0
 2004 045   128     0     0     0     0     0     0     0     0
 2004 046   129     0     0     0     0     0     0     0     0
 2004 047   130     0     0     0     0     0     0     0     0
 2004 048   131     0     0     0     0     0     0     0     0
 2004 049   132     0     0     0     0     0     0     0     0
 2004 050   133     0     0     0     0     0     0     0     0
 2004 051   134     0     0     0     0     0     0     0     0
 2004 052   135     0     0     0     0     0     0     0     0
 2004 053   136     0     0     0     0     0     0     0     0
 2004 054   137     0     0     0     0     0     0     0     0
 2004 055   138     0     0     0     0     0     0     0     0
 2004 056   139     0     0     0     0     0     0     0     0
 2004 057   140     0     0     0     0     0     0     0     0
 2004 058   141     0     0     0     0     0     0     0     0
 2004 059   142     0     0     0     0     0     0     0     0
 2004 060   143     0     0     0     0     0     0     0     0
 2004 061   144     0     0     0     0     0     0     0     0
 2004 062   145     0     0     0     0     0     0     0     0
 2004 063   146     0     0     0     0     0     0     0     0
 2004 064   147     0     0     0     0     0     0     0     0
 2004 065   148     0     0     0     0     0     0     0     0
 2004 066   149     0     0     0     0     0     0     0     0
 2004 067   150     0     0     0     0     0     0     0     0
 2004 068   151     0     0     0     0     0     0     0     0
 2004 069   152     0     0     0     0     0     0     0     0
 2004 070   153     0     0     0     0     0     0     0     0
 2004 071   154     0     0     0     0     0     0     0     0
 2004 072   155     0     0     0     0     0     0     0     0
 2004 073   156     0     0     0     0     0     0     0     0
 2004 074   157     0     0     0     0     0     0     0     0
 2004 075   158     0     0     0     0     0     0     0     0
 2004 076   159     0     0     0     0     0     0     0     0
 2004 077   160     0     0     0     0     0     0     0     0
 2004 078   161     0     0     0     0     0     0     0     0
 2004 079   162     0     0     0     0     0     0     0     0
 2004 080   163     0     0     0     0     0     0     0     0
 2004 081   164     0     0     0     0     0     0     0     0
 2004 082   165     0     0     0     0     0     0     0     0
 2004 083   166     0     0     0     0     0     0     0     0
 2004 084   167     0     0     0     0     0     0     0     0
 2004 085   168     0     0     0     0     0     0     0     0
 2004 086   169     0     0     0     0     0     0     0     0
 2004 087   170     0     0     0     0     0     0     0     0
 2004 088   171     0     0     0     0     0     0     0     0
 2004 089   172     0     0     0     0     0     0     0     0
 2004 090   173     0     0     0     0     0     0     0     0
 2004 091   174     0     0     0     0     0     0     0     0
 2004 092   175     0     0     0     0     0     0     0     0
 2004 093   176     0     0     0     0     0     0     0     0
 2004 094   177     0     0     0     0     0     0     0     0
 2004 095   178     0     0     0     0     0     0     0     0
 2004 096   179     0     0     0     0     0     0     0     0
 2004 097   180     0     0     0     0     0     0     0     0
 2004 098   181     0     0     0     0     0     0     0     0
 2004 099   182     0     0     0     0     0     0     0     0
 2004 100   183     0     0     0     0     0     0     0     0
 2004 101   184     0     0     0     0     0     0     0     0
 2004 102   185     0     0     0     0     0     0     0     0
 2004 103   186     0     0     0     0     0     0     0     0
 2004 104   187     0     0     0     0     0     0     0     0
 2004 105   188     0     0     0     0     0     0     0     0
 2004 106   189     0     0     0     0     0     0     0     0
 2004 107   190     0     0     0     0     0     0     0     0
 2004 108   191     0     0     0     0     0     0     0     0
 2004 109   192     0     0     0     0     0     0     0     0
 2004 110   193     0     0     0     0     0     0     0     0
 2004 111   194     0     0     0     0     0     0     0     0
 2004 112   195     0     0     0     0     0     0     0     0
 2004 113   196     0     0     0     0     0     0     0     0
 2004 114   197     0     0     0     0     0     0     0     0
 2004 115   198     0     0     0     0     0     0     0     0
 2004 116   199     0     0     0     0     0     0     0     0
 2004 117   200     0     0     0     0     0     0     0     0
 2004 118   201     0     0     0     0     0     0     0     0
 2004 119   202     0     0     0     0     0     0     0     0
 2004 120   203     0     0     0     0     0     0     0     0
 2004 121   204     0     0     0     0     0     0     0     0
 2004 122   205     0     0     0     0     0     0     0     0
 2004 123   206     0     0     0     0     0     0     0     0
 2004 124   207     0     0     0     0     0     0     0     0
 2004 125   208     0     0     0     0     0     0     0     0
 2004 126   209     0     0     0     0     0     0     0     0
 2004 127   210     0     0     0     0     0     0     0     0
 2004 128   211     0     0     0     0     0     0     0     0
 2004 129   212     0     0     0     0     0     0     0     0
 2004 130   213     0     0     0     0     0     0     0     0
 2004 131   214     0     0     0     0     0     0     0     0
 2004 132   215     0     0     0     0     0     0     0     0
 2004 133   216     0     0     0     0     0     0     0     0
 2004 134   217     0     0     0     0     0     0     0     0
 2004 135   218     0     0     0     0     0     0     0     0
 2004 136   219     0     0     0     0     0     0     0     0
 2004 137   220     0     0     0     0     0     0     0     0
 2004 138   221     0     0     0     0     0     0     0     0
 2004 139   222     0     0     0     0     0     0     0     0
 2004 140   223     0     0     0     0     0     0     0     0
 2004 141   224     0     0     0     0     0     0     0     0
 2004 142   225     0     0     0     0     0     0     0     0
 2004 143   226     0     0     0     0     0     0     0     0
 2004 144   227     0     0     0     0     0     0     0     0
 2004 145   228     0     0     0     0     0     0     0     0
 2004 146   229     0     0     0     0     0     0     0     0
 2004 147   230     0     0     0     0     0     0     0     0
 2004 148   231     0     0     0     0     0     0     0     0
 2004 149   232     0     0     0     0     0     0     0     0
 2004 150   233     0     0     0     0     0     0     0     0
 2004 151   234     0     0     0     0     0     0     0     0
 2004 152   235     0     0     0     0     0     0     0     0
 2004 153   236     0     0     0     0     0     0     0     0
 2004 154   237     0     0     0     0     0     0     0     0
 2004 155   238     0     0     0     0     0     0     0     0
 2004 156   239     0     0     0     0     0     0     0     0
 2004 157   240     0     0     0     0     0     0     0     0
 2004 158   241     0     0     0     0     0     0     0     0
 2004 159   242     0     0     0     0     0     0     0     0
 2004 160   243     0     0     0     0     0     0     0     0
 2004 161   244     0     0     0     0     0     0     0     0
 2004 162   245     0     0     0     0     0     0     0     0
 2004 163   246     0     0     0     0     0     0     0     0
 2004 164   247     0     0     0     0     0     0     0     0
 2004 165   248     0     0     0     0     0     0     0     0
 2004 166   249     0     0     0     0     0     0     0     0
 2004 167   250     0     0     0     0     0     0     0     0
 2004 168   251     0     0     0     0     0     0     0     0
 2004 169   252     0     0     0     0     0     0     0     0
 2004 170   253     1     0     0     0     0     0     0     0
 2004 171   254     2     0     0     0     0     0     0     0
 2004 172   255     3     0     0     0     0     0     0     0
 2004 173   256     4     0     0     0     0     0     0     0
 2004 174   257     5     0     0     0     0     0     0     0
 2004 175   258     6     0     0     0     0     0     0     0
 2004 176   259     7     0     0     0     0     0     0     0
 2004 177   260     8     0     0     0     0     0     0     0
 2004 178   261     9     0     0     0     0     0     0     0
 2004 179   262    10     0     0     0     0     0     0     0
 2004 180   263    11     0     0     0     0     0     0     0
 2004 181   264    12     0     0     0     0     0     0     0
 2004 182   265    13     0     0     0     0     0     0     0
 2004 183   266    14     0     0     0     0     0     0     0
 2004 184   267    15     0     0     0     0     0     0     0
 2004 185   268    16     0     0     0     0     0     0     0
 2004 186   269    17     0     0     0     0     0     0     0
 2004 187   270    18     0     0     0     0     0     0     0
 2004 188   271    19     0     0     0     0     0     0     0
 2004 189   272    20     0     0     0     0     0     0     0
 2004 190   273    21     0     0     0     0     0     0     0
 2004 191   274    22     0     0     0     0     0     0     0
 2004 192   275    23     0     0     0     0     0     0     0
 2004 193   276    24     0     0     0     0     0     0     0
 2004 194   277    25     0     0     0     0     0     0     0
 2004 195   278    26     0     0     0     0     0     0     0
 2004 196   279    27     0     0     0     0     0     0     0
 2004 197   280    28     0     0     0     0     0     0     0
 2004 198   281    29     0     0     0     0     0     0     0
 2004 199   282    30     0     0     0     0     0     0     0
 2004 200   283    31     0     0     0     0     0     0     0
 2004 201   284    32     0     0     0     0     0     0     0
 2004 202   285    33     0     0     0     0     0     0     0
 2004 203   286    34     0     0     0     0     0     0     0
 2004 204   287    35     0     0     0     0     0     0     0
 2004 205   288    36     0     0     0     0     0     0     0
 2004 206   289    37     0     0     0     0     0     0     0
 2004 207   290    38     0     0     0     0     0     0     0
 2004 208   291    39     0     0     0     0     0     0     0
 2004 209   292    40     0     0     0     0     0     0     0
 2004 210   293    41     0     0     0     0     0     0     0
 2004 211   294    42     0     0     0     0     0     0     0
 2004 212   295    43     0     0     0     0     0     0     0
 2004 213   296    44     0     0     0     0     0     0     0
 2004 214   297    45     0     0     0     0     0     0     0
 2004 215   298    46     0     0     0     0     0     0     0
 2004 216   299    47     0     0     0     0     0     0     0
 2004 217   300    48     0     0     0     0     0     0     0
 2004 218   301    49     0     0     0     0     0     0     0
 2004 219   302    50     0     0     0     0     0     0     0
 2004 220   303    51     0     0     0     0     0     0     0
 2004 221   304    52     0     0     0     0     0     0     0
 2004 222   305    53     0     0     0     0     0     0     0
 2004 223   306    54     0     0     0     0     0     0     0
 2004 224   307    55     0     0     0     0     0     0     0
 2004 225   308    56     0     0     0     0     0     0     0
 2004 226   309    57     0     0     0     0     0     0     0
 2004 227   310    58     0     0     0     0     0     0     0
 2004 228   311    59     0     0     0     0     0     0     0
 2004 229   312    60     0     0     0     0     0     0     0
 2004 230   313    61     0     0     0     0     0     0     0
 2004 231   314    62     0     0     0     0     0     0     0
 2004 232   315    63     0     0     0     0     0     0     0
 2004 233   316    64     0     0     0     0     0     0     0
 2004 234   317    65     0     0     0     0     0     0     0
 2004 235   318    66     0     0     0     0     0     0     0
 2004 236   319    67     0     0     0     0     0     0     0
 2004 237   320    68     0     0     0     0     0     0     0
 2004 238   321    69     0     0     0     0     0     0     0
 2004 239   322    70     0     0     0     0     0     0     0
 2004 240   323    71     0     0     0     0     0     0     0
 2004 241   324    72     0     0     0     0     0     0     0
 2004 242   325    73     0     0     0     0     0     0     0
 2004 243   326    74     0     0     0     0     0     0     0
 2004 244   327    75     0     0     0     0     0     0     0
 2004 245   328    76     0     0     0     0     0     0     0
 2004 246   329    77     0     0     0     0     0     0     0
 2004 247   330    78     0     0     0     0     0     0     0
 2004 248   331    79     0     0     0     0     0     0     0
 2004 249   332    80     0     0     0     0     0     0     0
 2004 250   333    81     0     0     0     0     0     0     0
 2004 251   334    82     0     0     0     0     0     0     0
 2004 252   335    83     0     0     0     0     0     0     0
 2004 253   336    84     0     0     0     0     0     0     0
 2004 254   337    85     0     0     0     0     0     0     0
 2004 255   338    86     0     0     0     0     0     0     0
 2004 256   339    87     0     0     0     0     0     0     0
 2004 257   340    88     0     0     0     0     0     0     0
 2004 258   341    89     0     0     0     0     0     0     0
 2004 259   342    90     0     0     0     0     0     0     0
 2004 260   343    91     0     0     0     0     0     0     0
 2004 261   344    92     0     0     0     0     0     0     0
 2004 262   345    93     0     0     0     0     0     0     0
 2004 263   346    94     0     0     0     0     0     0     0
 2004 264   347    95     0     0     0     0     0     0     0
 2004 265   348    96     0     0     0     0     0     0     0
 2004 266   349    97     0     0     0     0     0     0     0
 2004 267   350    98     0     0     0     0     0     0     0
 2004 268   351    99     0     0     0     0     0     0     0
 2004 269   352   100     0     0     0     0     0     0     0
 2004 270   353   101     0     0     0     0     0     0     0
 2004 271   354   102     0     0     0     0     0     0     0
 2004 272   355   103     0     0     0     0     0     0     0
 2004 273   356   104     0     0     0     0     0     0     0
 2004 274   357   105     0     0     0     0     0     0     0
 2004 275   358   106     0     0     0     0     0     0     0
 2004 276   359   107     0     0     0     0     0     0     0
 2004 277   360   108     0     0     0     0     0     0     0
 2004 278   361   109     0     0     0     0     0     0     0
 2004 279   362   110     0     0     0     0     0     0     0
 2004 280   363   111     0     0     0     0     0     0     0
 2004 281   364   112     0     0     0     0     0     0     0
 2004 282   365   113     0     0     0     0     0     0     0
 2004 283   366   114     0     0     0     0     0     0     0
 2004 284   367   115     0     0     0     0     0     0     0
 2004 285   368   116     0     0     0     0     0     0     0
 2004 286   369   117     0     0     0     0     0     0     0
 2004 287   370   118     0     0     0     0     0     0     0
 2004 288   371   119     0     0     0     0     0     0     0
 2004 289   372   120     0     0     0     0     0     0     0
 2004 290   373   121     0     0     0     0     0     0     0
 2004 291   374   122     0     0     0     0     0     0     0
 2004 292   375   123     0     0     0     0     0     0     0
 2004 293   376   124     0     0     0     0     0     0     0
 2004 294   377   125     0     0     0     0     0     0     0

*DSSAT Cropping System Model Ver. 4.5.1.023 -Stub         DEC 04, 2014; 01:35:45
                                                                                
*RUN   2        : N0 P60                    MZCER045 GHWA0401    2              
 MODEL          : MZCER045 - Maize                                              
 EXPERIMENT     : GHWA0401 MZ ON-STATION NXP (EXPERIMENT NO.2) 9 TRT            
 DATA PATH      :                                                               
 TREATMENT  2   : N0 P60                    MZCER045                            
  

@YEAR DOY   DAS   DAP  NAPC  NICM  PAPC  PICM  R#AC RESNC RESPC
 2003 283     1     0     0     0     0     0     0     0     0
 2003 284     2     0     0     0     0     0     0     0     0
 2003 285     3     0     0     0     0     0     0     0     0
 2003 286     4     0     0     0     0     0     0     0     0
 2003 287     5     0     0     0     0     0     0     0     0
 2003 288     6     0     0     0     0     0     0     0     0
 2003 289     7     0     0     0     0     0     0     0     0
 2003 290     8     0     0     0     0     0     0     0     0
 2003 291     9     0     0     0     0     0     0     0     0
 2003 292    10     0     0     0     0     0     0     0     0
 2003 293    11     0     0     0     0     0     0     0     0
 2003 294    12     0     0     0     0     0     0     0     0
 2003 295    13     0     0     0     0     0     0     0     0
 2003 296    14     0     0     0     0     0     0     0     0
 2003 297    15     0     0     0     0     0     0     0     0
 2003 298    16     0     0     0     0     0     0     0     0
 2003 299    17     0     0     0     0     0     0     0     0
 2003 300    18     0     0     0     0     0     0     0     0
 2003 301    19     0     0     0     0     0     0     0     0
 2003 302    20     0     0     0     0     0     0     0     0
 2003 303    21     0     0     0     0     0     0     0     0
 2003 304    22     0     0     0     0     0     0     0     0
 2003 305    23     0     0     0     0     0     0     0     0
 2003 306    24     0     0     0     0     0     0     0     0
 2003 307    25     0     0     0     0     0     0     0     0
 2003 308    26     0     0     0     0     0     0     0     0
 2003 309    27     0     0     0     0     0     0     0     0
 2003 310    28     0     0     0     0     0     0     0     0
 2003 311    29     0     0     0     0     0     0     0     0
 2003 312    30     0     0     0     0     0     0     0     0
 2003 313    31     0     0     0     0     0     0     0     0
 2003 314    32     0     0     0     0     0     0     0     0
 2003 315    33     0     0     0     0     0     0     0     0
 2003 316    34     0     0     0     0     0     0     0     0
 2003 317    35     0     0     0     0     0     0     0     0
 2003 318    36     0     0     0     0     0     0     0     0
 2003 319    37     0     0     0     0     0     0     0     0
 2003 320    38     0     0     0     0     0     0     0     0
 2003 321    39     0     0     0     0     0     0     0     0
 2003 322    40     0     0     0     0     0     0     0     0
 2003 323    41     0     0     0     0     0     0     0     0
 2003 324    42     0     0     0     0     0     0     0     0
 2003 325    43     0     0     0     0     0     0     0     0
 2003 326    44     0     0     0     0     0     0     0     0
 2003 327    45     0     0     0     0     0     0     0     0
 2003 328    46     0     0     0     0     0     0     0     0
 2003 329    47     0     0     0     0     0     0     0     0
 2003 330    48     0     0     0     0     0     0     0     0
 2003 331    49     0     0     0     0     0     0     0     0
 2003 332    50     0     0     0     0     0     0     0     0
 2003 333    51     0     0     0     0     0     0     0     0
 2003 334    52     0     0     0     0     0     0     0     0
 2003 335    53     0     0     0     0     0     0     0     0
 2003 336    54     0     0     0     0     0     0     0     0
 2003 337    55     0     0     0     0     0     0     0     0
 2003 338    56     0     0     0     0     0     0     0     0
 2003 339    57     0     0     0     0     0     0     0     0
 2003 340    58     0     0     0     0     0     0     0     0
 2003 341    59     0     0     0     0     0     0     0     0
 2003 342    60     0     0     0     0     0     0     0     0
 2003 343    61     0     0     0     0     0     0     0     0
 2003 344    62     0     0     0     0     0     0     0     0
 2003 345    63     0     0     0     0     0     0     0     0
 2003 346    64     0     0     0     0     0     0     0     0
 2003 347    65     0     0     0     0     0     0     0     0
 2003 348    66     0     0     0     0     0     0     0     0
 2003 349    67     0     0     0     0     0     0     0     0
 2003 350    68     0     0     0     0     0     0     0     0
 2003 351    69     0     0     0     0     0     0     0     0
 2003 352    70     0     0     0     0     0     0     0     0
 2003 353    71     0     0     0     0     0     0     0     0
 2003 354    72     0     0     0     0     0     0     0     0
 2003 355    73     0     0     0     0     0     0     0     0
 2003 356    74     0     0     0     0     0     0     0     0
 2003 357    75     0     0     0     0     0     0     0     0
 2003 358    76     0     0     0     0     0     0     0     0
 2003 359    77     0     0     0     0     0     0     0     0
 2003 360    78     0     0     0     0     0     0     0     0
 2003 361    79     0     0     0     0     0     0     0     0
 2003 362    80     0     0     0     0     0     0     0     0
 2003 363    81     0     0     0     0     0     0     0     0
 2003 364    82     0     0     0     0     0     0     0     0
 2003 365    83     0     0     0     0     0     0     0     0
 2004 001    84     0     0     0     0     0     0     0     0
 2004 002    85     0     0     0     0     0     0     0     0
 2004 003    86     0     0     0     0     0     0     0     0
 2004 004    87     0     0     0     0     0     0     0     0
 2004 005    88     0     0     0     0     0     0     0     0
 2004 006    89     0     0     0     0     0     0     0     0
 2004 007    90     0     0     0     0     0     0     0     0
 2004 008    91     0     0     0     0     0     0     0     0
 2004 009    92     0     0     0     0     0     0     0     0
 2004 010    93     0     0     0     0     0     0     0     0
 2004 011    94     0     0     0     0     0     0     0     0
 2004 012    95     0     0     0     0     0     0     0     0
 2004 013    96     0     0     0     0     0     0     0     0
 2004 014    97     0     0     0     0     0     0     0     0
 2004 015    98     0     0     0     0     0     0     0     0
 2004 016    99     0     0     0     0     0     0     0     0
 2004 017   100     0     0     0     0     0     0     0     0
 2004 018   101     0     0     0     0     0     0     0     0
 2004 019   102     0     0     0     0     0     0     0     0
 2004 020   103     0     0     0     0     0     0     0     0
 2004 021   104     0     0     0     0     0     0     0     0
 2004 022   105     0     0     0     0     0     0     0     0
 2004 023   106     0     0     0     0     0     0     0     0
 2004 024   107     0     0     0     0     0     0     0     0
 2004 025   108     0     0     0     0     0     0     0     0
 2004 026   109     0     0     0     0     0     0     0     0
 2004 027   110     0     0     0     0     0     0     0     0
 2004 028   111     0     0     0     0     0     0     0     0
 2004 029   112     0     0     0     0     0     0     0     0
 2004 030   113     0     0     0     0     0     0     0     0
 2004 031   114     0     0     0     0     0     0     0     0
 2004 032   115     0     0     0     0     0     0     0     0
 2004 033   116     0     0     0     0     0     0     0     0
 2004 034   117     0     0     0     0     0     0     0     0
 2004 035   118     0     0     0     0     0     0     0     0
 2004 036   119     0     0     0     0     0     0     0     0
 2004 037   120     0     0     0     0     0     0     0     0
 2004 038   121     0     0     0     0     0     0     0     0
 2004 039   122     0     0     0     0     0     0     0     0
 2004 040   123     0     0     0     0     0     0     0     0
 2004 041   124     0     0     0     0     0     0     0     0
 2004 042   125     0     0     0     0     0     0     0     0
 2004 043   126     0     0     0     0     0     0     0     0
 2004 044   127     0     0     0     0     0     0     0     0
 2004 045   128     0     0     0     0     0     0     0     0
 2004 046   129     0     0     0     0     0     0     0     0
 2004 047   130     0     0     0     0     0     0     0     0
 2004 048   131     0     0     0     0     0     0     0     0
 2004 049   132     0     0     0     0     0     0     0     0
 2004 050   133     0     0     0     0     0     0     0     0
 2004 051   134     0     0     0     0     0     0     0     0
 2004 052   135     0     0     0     0     0     0     0     0
 2004 053   136     0     0     0     0     0     0     0     0
 2004 054   137     0     0     0     0     0     0     0     0
 2004 055   138     0     0     0     0     0     0     0     0
 2004 056   139     0     0     0     0     0     0     0     0
 2004 057   140     0     0     0     0     0     0     0     0
 2004 058   141     0     0     0     0     0     0     0     0
 2004 059   142     0     0     0     0     0     0     0     0
 2004 060   143     0     0     0     0     0     0     0     0
 2004 061   144     0     0     0     0     0     0     0     0
 2004 062   145     0     0     0     0     0     0     0     0
 2004 063   146     0     0     0     0     0     0     0     0
 2004 064   147     0     0     0     0     0     0     0     0
 2004 065   148     0     0     0     0     0     0     0     0
 2004 066   149     0     0     0     0     0     0     0     0
 2004 067   150     0     0     0     0     0     0     0     0
 2004 068   151     0     0     0     0     0     0     0     0
 2004 069   152     0     0     0     0     0     0     0     0
 2004 070   153     0     0     0     0     0     0     0     0
 2004 071   154     0     0     0     0     0     0     0     0
 2004 072   155     0     0     0     0     0     0     0     0
 2004 073   156     0     0     0     0     0     0     0     0
 2004 074   157     0     0     0     0     0     0     0     0
 2004 075   158     0     0     0     0     0     0     0     0
 2004 076   159     0     0     0     0     0     0     0     0
 2004 077   160     0     0     0     0     0     0     0     0
 2004 078   161     0     0     0     0     0     0     0     0
 2004 079   162     0     0     0     0     0     0     0     0
 2004 080   163     0     0     0     0     0     0     0     0
 2004 081   164     0     0     0     0     0     0     0     0
 2004 082   165     0     0     0     0     0     0     0     0
 2004 083   166     0     0     0     0     0     0     0     0
 2004 084   167     0     0     0     0     0     0     0     0
 2004 085   168     0     0     0     0     0     0     0     0
 2004 086   169     0     0     0     0     0     0     0     0
 2004 087   170     0     0     0     0     0     0     0     0
 2004 088   171     0     0     0     0     0     0     0     0
 2004 089   172     0     0     0     0     0     0     0     0
 2004 090   173     0     0     0     0     0     0     0     0
 2004 091   174     0     0     0     0     0     0     0     0
 2004 092   175     0     0     0     0     0     0     0     0
 2004 093   176     0     0     0     0     0     0     0     0
 2004 094   177     0     0     0     0     0     0     0     0
 2004 095   178     0     0     0     0     0     0     0     0
 2004 096   179     0     0     0     0     0     0     0     0
 2004 097   180     0     0     0     0     0     0     0     0
 2004 098   181     0     0     0     0     0     0     0     0
 2004 099   182     0     0     0     0     0     0     0     0
 2004 100   183     0     0     0     0     0     0     0     0
 2004 101   184     0     0     0     0     0     0     0     0
 2004 102   185     0     0     0     0     0     0     0     0
 2004 103   186     0     0     0     0     0     0     0     0
 2004 104   187     0     0     0     0     0     0     0     0
 2004 105   188     0     0     0     0     0     0     0     0
 2004 106   189     0     0     0     0     0     0     0     0
 2004 107   190     0     0     0     0     0     0     0     0
 2004 108   191     0     0     0     0     0     0     0     0
 2004 109   192     0     0     0     0     0     0     0     0
 2004 110   193     0     0     0     0     0     0     0     0
 2004 111   194     0     0     0     0     0     0     0     0
 2004 112   195     0     0     0     0     0     0     0     0
 2004 113   196     0     0     0     0     0     0     0     0
 2004 114   197     0     0     0     0     0     0     0     0
 2004 115   198     0     0     0     0     0     0     0     0
 2004 116   199     0     0     0     0     0     0     0     0
 2004 117   200     0     0     0     0     0     0     0     0
 2004 118   201     0     0     0     0     0     0     0     0
 2004 119   202     0     0     0     0     0     0     0     0
 2004 120   203     0     0     0     0     0     0     0     0
 2004 121   204     0     0     0     0     0     0     0     0
 2004 122   205     0     0     0     0     0     0     0     0
 2004 123   206     0     0     0     0     0     0     0     0
 2004 124   207     0     0     0     0     0     0     0     0
 2004 125   208     0     0     0     0     0     0     0     0
 2004 126   209     0     0     0     0     0     0     0     0
 2004 127   210     0     0     0     0     0     0     0     0
 2004 128   211     0     0     0     0     0     0     0     0
 2004 129   212     0     0     0     0     0     0     0     0
 2004 130   213     0     0     0     0     0     0     0     0
 2004 131   214     0     0     0     0     0     0     0     0
 2004 132   215     0     0     0     0     0     0     0     0
 2004 133   216     0     0     0     0     0     0     0     0
 2004 134   217     0     0     0     0     0     0     0     0
 2004 135   218     0     0     0     0     0     0     0     0
 2004 136   219     0     0     0     0     0     0     0     0
 2004 137   220     0     0     0     0     0     0     0     0
 2004 138   221     0     0     0     0     0     0     0     0
 2004 139   222     0     0     0     0     0     0     0     0
 2004 140   223     0     0     0     0     0     0     0     0
 2004 141   224     0     0     0     0     0     0     0     0
 2004 142   225     0     0     0     0     0     0     0     0
 2004 143   226     0     0     0     0     0     0     0     0
 2004 144   227     0     0     0     0     0     0     0     0
 2004 145   228     0     0     0     0     0     0     0     0
 2004 146   229     0     0     0     0     0     0     0     0
 2004 147   230     0     0     0     0     0     0     0     0
 2004 148   231     0     0     0     0     0     0     0     0
 2004 149   232     0     0     0     0     0     0     0     0
 2004 150   233     0     0     0     0     0     0     0     0
 2004 151   234     0     0     0     0     0     0     0     0
 2004 152   235     0     0     0     0     0     0     0     0
 2004 153   236     0     0     0     0     0     0     0     0
 2004 154   237     0     0     0     0     0     0     0     0
 2004 155   238     0     0     0     0     0     0     0     0
 2004 156   239     0     0     0     0     0     0     0     0
 2004 157   240     0     0     0     0     0     0     0     0
 2004 158   241     0     0     0     0     0     0     0     0
 2004 159   242     0     0     0     0     0     0     0     0
 2004 160   243     0     0     0     0     0     0     0     0
 2004 161   244     0     0     0     0     0     0     0     0
 2004 162   245     0     0     0     0     0     0     0     0
 2004 163   246     0     0     0     0     0     0     0     0
 2004 164   247     0     0     0     0     0     0     0     0
 2004 165   248     0     0     0     0     0     0     0     0
 2004 166   249     0     0     0     0     0     0     0     0
 2004 167   250     0     0     0     1    26     0     0     0
 2004 168   251     0     0     0     1    26     0     0     0
 2004 169   252     0     0     0     1    26     0     0     0
 2004 170   253     1     0     0     1    26     0     0     0
 2004 171   254     2     0     0     1    26     0     0     0
 2004 172   255     3     0     0     1    26     0     0     0
 2004 173   256     4     0     0     1    26     0     0     0
 2004 174   257     5     0     0     1    26     0     0     0
 2004 175   258     6     0     0     1    26     0     0     0
 2004 176   259     7     0     0     1    26     0     0     0
 2004 177   260     8     0     0     1    26     0     0     0
 2004 178   261     9     0     0     1    26     0     0     0
 2004 179   262    10     0     0     1    26     0     0     0
 2004 180   263    11     0     0     1    26     0     0     0
 2004 181   264    12     0     0     1    26     0     0     0
 2004 182   265    13     0     0     1    26     0     0     0
 2004 183   266    14     0     0     1    26     0     0     0
 2004 184   267    15     0     0     1    26     0     0     0
 2004 185   268    16     0     0     1    26     0     0     0
 2004 186   269    17     0     0     1    26     0     0     0
 2004 187   270    18     0     0     1    26     0     0     0
 2004 188   271    19     0     0     1    26     0     0     0
 2004 189   272    20     0     0     1    26     0     0     0
 2004 190   273    21     0     0     1    26     0     0     0
 2004 191   274    22     0     0     1    26     0     0     0
 2004 192   275    23     0     0     1    26     0     0     0
 2004 193   276    24     0     0     1    26     0     0     0
 2004 194   277    25     0     0     1    26     0     0     0
 2004 195   278    26     0     0     1    26     0     0     0
 2004 196   279    27     0     0     1    26     0     0     0
 2004 197   280    28     0     0     1    26     0     0     0
 2004 198   281    29     0     0     1    26     0     0     0
 2004 199   282    30     0     0     1    26     0     0     0
 2004 200   283    31     0     0     1    26     0     0     0
 2004 201   284    32     0     0     1    26     0     0     0
 2004 202   285    33     0     0     1    26     0     0     0
 2004 203   286    34     0     0     1    26     0     0     0
 2004 204   287    35     0     0     1    26     0     0     0
 2004 205   288    36     0     0     1    26     0     0     0
 2004 206   289    37     0     0     1    26     0     0     0
 2004 207   290    38     0     0     1    26     0     0     0
 2004 208   291    39     0     0     1    26     0     0     0
 2004 209   292    40     0     0     1    26     0     0     0
 2004 210   293    41     0     0     1    26     0     0     0
 2004 211   294    42     0     0     1    26     0     0     0
 2004 212   295    43     0     0     1    26     0     0     0
 2004 213   296    44     0     0     1    26     0     0     0
 2004 214   297    45     0     0     1    26     0     0     0
 2004 215   298    46     0     0     1    26     0     0     0
 2004 216   299    47     0     0     1    26     0     0     0
 2004 217   300    48     0     0     1    26     0     0     0
 2004 218   301    49     0     0     1    26     0     0     0
 2004 219   302    50     0     0     1    26     0     0     0
 2004 220   303    51     0     0     1    26     0     0     0
 2004 221   304    52     0     0     1    26     0     0     0
 2004 222   305    53     0     0     1    26     0     0     0
 2004 223   306    54     0     0     1    26     0     0     0
 2004 224   307    55     0     0     1    26     0     0     0
 2004 225   308    56     0     0     1    26     0     0     0
 2004 226   309    57     0     0     1    26     0     0     0
 2004 227   310    58     0     0     1    26     0     0     0
 2004 228   311    59     0     0     1    26     0     0     0
 2004 229   312    60     0     0     1    26     0     0     0
 2004 230   313    61     0     0     1    26     0     0     0
 2004 231   314    62     0     0     1    26     0     0     0
 2004 232   315    63     0     0     1    26     0     0     0
 2004 233   316    64     0     0     1    26     0     0     0
 2004 234   317    65     0     0     1    26     0     0     0
 2004 235   318    66     0     0     1    26     0     0     0
 2004 236   319    67     0     0     1    26     0     0     0
 2004 237   320    68     0     0     1    26     0     0     0
 2004 238   321    69     0     0     1    26     0     0     0
 2004 239   322    70     0     0     1    26     0     0     0
 2004 240   323    71     0     0     1    26     0     0     0
 2004 241   324    72     0     0     1    26     0     0     0
 2004 242   325    73     0     0     1    26     0     0     0
 2004 243   326    74     0     0     1    26     0     0     0
 2004 244   327    75     0     0     1    26     0     0     0
 2004 245   328    76     0     0     1    26     0     0     0
 2004 246   329    77     0     0     1    26     0     0     0
 2004 247   330    78     0     0     1    26     0     0     0
 2004 248   331    79     0     0     1    26     0     0     0
 2004 249   332    80     0     0     1    26     0     0     0
 2004 250   333    81     0     0     1    26     0     0     0
 2004 251   334    82     0     0     1    26     0     0     0
 2004 252   335    83     0     0     1    26     0     0     0
 2004 253   336    84     0     0     1    26     0     0     0
 2004 254   337    85     0     0     1    26     0     0     0
 2004 255   338    86     0     0     1    26     0     0     0
 2004 256   339    87     0     0     1    26     0     0     0
 2004 257   340    88     0     0     1    26     0     0     0
 2004 258   341    89     0     0     1    26     0     0     0
 2004 259   342    90     0     0     1    26     0     0     0
 2004 260   343    91     0     0     1    26     0     0     0
 2004 261   344    92     0     0     1    26     0     0     0
 2004 262   345    93     0     0     1    26     0     0     0
 2004 263   346    94     0     0     1    26     0     0     0
 2004 264   347    95     0     0     1    26     0     0     0
 2004 265   348    96     0     0     1    26     0     0     0
 2004 266   349    97     0     0     1    26     0     0     0
 2004 267   350    98     0     0     1    26     0     0     0
 2004 268   351    99     0     0     1    26     0     0     0
 2004 269   352   100     0     0     1    26     0     0     0
 2004 270   353   101     0     0     1    26     0     0     0
 2004 271   354   102     0     0     1    26     0     0     0
 2004 272   355   103     0     0     1    26     0     0     0
 2004 273   356   104     0     0     1    26     0     0     0
 2004 274   357   105     0     0     1    26     0     0     0
 2004 275   358   106     0     0     1    26     0     0     0
 2004 276   359   107     0     0     1    26     0     0     0
 2004 277   360   108     0     0     1    26     0     0     0
 2004 278   361   109     0     0     1    26     0     0     0
 2004 279   362   110     0     0     1    26     0     0     0
 2004 280   363   111     0     0     1    26     0     0     0
 2004 281   364   112     0     0     1    26     0     0     0
 2004 282   365   113     0     0     1    26     0     0     0
 2004 283   366   114     0     0     1    26     0     0     0
 2004 284   367   115     0     0     1    26     0     0     0
 2004 285   368   116     0     0     1    26     0     0     0
 2004 286   369   117     0     0     1    26     0     0     0
 2004 287   370   118     0     0     1    26     0     0     0
 2004 288   371   119     0     0     1    26     0     0     0
 2004 289   372   120     0     0     1    26     0     0     0
 2004 290   373   121     0     0     1    26     0     0     0
 2004 291   374   122     0     0     1    26     0     0     0
 2004 292   375   123     0     0     1    26     0     0     0
 2004 293   376   124     0     0     1    26     0     0     0
 2004 294   377   125     0     0     1    26     0     0     0

*DSSAT Cropping System Model Ver. 4.5.1.023 -Stub         DEC 04, 2014; 01:35:45
                                                                                
*RUN   3        : N0 P90                    MZCER045 GHWA0401    3              
 MODEL          : MZCER045 - Maize                                              
 EXPERIMENT     : GHWA0401 MZ ON-STATION NXP (EXPERIMENT NO.2) 9 TRT            
 DATA PATH      :                                                               
 TREATMENT  3   : N0 P90                    MZCER045                            
  

@YEAR DOY   DAS   DAP  NAPC  NICM  PAPC  PICM  R#AC RESNC RESPC
 2003 283     1     0     0     0     0     0     0     0     0
 2003 284     2     0     0     0     0     0     0     0     0
 2003 285     3     0     0     0     0     0     0     0     0
 2003 286     4     0     0     0     0     0     0     0     0
 2003 287     5     0     0     0     0     0     0     0     0
 2003 288     6     0     0     0     0     0     0     0     0
 2003 289     7     0     0     0     0     0     0     0     0
 2003 290     8     0     0     0     0     0     0     0     0
 2003 291     9     0     0     0     0     0     0     0     0
 2003 292    10     0     0     0     0     0     0     0     0
 2003 293    11     0     0     0     0     0     0     0     0
 2003 294    12     0     0     0     0     0     0     0     0
 2003 295    13     0     0     0     0     0     0     0     0
 2003 296    14     0     0     0     0     0     0     0     0
 2003 297    15     0     0     0     0     0     0     0     0
 2003 298    16     0     0     0     0     0     0     0     0
 2003 299    17     0     0     0     0     0     0     0     0
 2003 300    18     0     0     0     0     0     0     0     0
 2003 301    19     0     0     0     0     0     0     0     0
 2003 302    20     0     0     0     0     0     0     0     0
 2003 303    21     0     0     0     0     0     0     0     0
 2003 304    22     0     0     0     0     0     0     0     0
 2003 305    23     0     0     0     0     0     0     0     0
 2003 306    24     0     0     0     0     0     0     0     0
 2003 307    25     0     0     0     0     0     0     0     0
 2003 308    26     0     0     0     0     0     0     0     0
 2003 309    27     0     0     0     0     0     0     0     0
 2003 310    28     0     0     0     0     0     0     0     0
 2003 311    29     0     0     0     0     0     0     0     0
 2003 312    30     0     0     0     0     0     0     0     0
 2003 313    31     0     0     0     0     0     0     0     0
 2003 314    32     0     0     0     0     0     0     0     0
 2003 315    33     0     0     0     0     0     0     0     0
 2003 316    34     0     0     0     0     0     0     0     0
 2003 317    35     0     0     0     0     0     0     0     0
 2003 318    36     0     0     0     0     0     0     0     0
 2003 319    37     0     0     0     0     0     0     0     0
 2003 320    38     0     0     0     0     0     0     0     0
 2003 321    39     0     0     0     0     0     0     0     0
 2003 322    40     0     0     0     0     0     0     0     0
 2003 323    41     0     0     0     0     0     0     0     0
 2003 324    42     0     0     0     0     0     0     0     0
 2003 325    43     0     0     0     0     0     0     0     0
 2003 326    44     0     0     0     0     0     0     0     0
 2003 327    45     0     0     0     0     0     0     0     0
 2003 328    46     0     0     0     0     0     0     0     0
 2003 329    47     0     0     0     0     0     0     0     0
 2003 330    48     0     0     0     0     0     0     0     0
 2003 331    49     0     0     0     0     0     0     0     0
 2003 332    50     0     0     0     0     0     0     0     0
 2003 333    51     0     0     0     0     0     0     0     0
 2003 334    52     0     0     0     0     0     0     0     0
 2003 335    53     0     0     0     0     0     0     0     0
 2003 336    54     0     0     0     0     0     0     0     0
 2003 337    55     0     0     0     0     0     0     0     0
 2003 338    56     0     0     0     0     0     0     0     0
 2003 339    57     0     0     0     0     0     0     0     0
 2003 340    58     0     0     0     0     0     0     0     0
 2003 341    59     0     0     0     0     0     0     0     0
 2003 342    60     0     0     0     0     0     0     0     0
 2003 343    61     0     0     0     0     0     0     0     0
 2003 344    62     0     0     0     0     0     0     0     0
 2003 345    63     0     0     0     0     0     0     0     0
 2003 346    64     0     0     0     0     0     0     0     0
 2003 347    65     0     0     0     0     0     0     0     0
 2003 348    66     0     0     0     0     0     0     0     0
 2003 349    67     0     0     0     0     0     0     0     0
 2003 350    68     0     0     0     0     0     0     0     0
 2003 351    69     0     0     0     0     0     0     0     0
 2003 352    70     0     0     0     0     0     0     0     0
 2003 353    71     0     0     0     0     0     0     0     0
 2003 354    72     0     0     0     0     0     0     0     0
 2003 355    73     0     0     0     0     0     0     0     0
 2003 356    74     0     0     0     0     0     0     0     0
 2003 357    75     0     0     0     0     0     0     0     0
 2003 358    76     0     0     0     0     0     0     0     0
 2003 359    77     0     0     0     0     0     0     0     0
 2003 360    78     0     0     0     0     0     0     0     0
 2003 361    79     0     0     0     0     0     0     0     0
 2003 362    80     0     0     0     0     0     0     0     0
 2003 363    81     0     0     0     0     0     0     0     0
 2003 364    82     0     0     0     0     0     0     0     0
 2003 365    83     0     0     0     0     0     0     0     0
 2004 001    84     0     0     0     0     0     0     0     0
 2004 002    85     0     0     0     0     0     0     0     0
 2004 003    86     0     0     0     0     0     0     0     0
 2004 004    87     0     0     0     0     0     0     0     0
 2004 005    88     0     0     0     0     0     0     0     0
 2004 006    89     0     0     0     0     0     0     0     0
 2004 007    90     0     0     0     0     0     0     0     0
 2004 008    91     0     0     0     0     0     0     0     0
 2004 009    92     0     0     0     0     0     0     0     0
 2004 010    93     0     0     0     0     0     0     0     0
 2004 011    94     0     0     0     0     0     0     0     0
 2004 012    95     0     0     0     0     0     0     0     0
 2004 013    96     0     0     0     0     0     0     0     0
 2004 014    97     0     0     0     0     0     0     0     0
 2004 015    98     0     0     0     0     0     0     0     0
 2004 016    99     0     0     0     0     0     0     0     0
 2004 017   100     0     0     0     0     0     0     0     0
 2004 018   101     0     0     0     0     0     0     0     0
 2004 019   102     0     0     0     0     0     0     0     0
 2004 020   103     0     0     0     0     0     0     0     0
 2004 021   104     0     0     0     0     0     0     0     0
 2004 022   105     0     0     0     0     0     0     0     0
 2004 023   106     0     0     0     0     0     0     0     0
 2004 024   107     0     0     0     0     0     0     0     0
 2004 025   108     0     0     0     0     0     0     0     0
 2004 026   109     0     0     0     0     0     0     0     0
 2004 027   110     0     0     0     0     0     0     0     0
 2004 028   111     0     0     0     0     0     0     0     0
 2004 029   112     0     0     0     0     0     0     0     0
 2004 030   113     0     0     0     0     0     0     0     0
 2004 031   114     0     0     0     0     0     0     0     0
 2004 032   115     0     0     0     0     0     0     0     0
 2004 033   116     0     0     0     0     0     0     0     0
 2004 034   117     0     0     0     0     0     0     0     0
 2004 035   118     0     0     0     0     0     0     0     0
 2004 036   119     0     0     0     0     0     0     0     0
 2004 037   120     0     0     0     0     0     0     0     0
 2004 038   121     0     0     0     0     0     0     0     0
 2004 039   122     0     0     0     0     0     0     0     0
 2004 040   123     0     0     0     0     0     0     0     0
 2004 041   124     0     0     0     0     0     0     0     0
 2004 042   125     0     0     0     0     0     0     0     0
 2004 043   126     0     0     0     0     0     0     0     0
 2004 044   127     0     0     0     0     0     0     0     0
 2004 045   128     0     0     0     0     0     0     0     0
 2004 046   129     0     0     0     0     0     0     0     0
 2004 047   130     0     0     0     0     0     0     0     0
 2004 048   131     0     0     0     0     0     0     0     0
 2004 049   132     0     0     0     0     0     0     0     0
 2004 050   133     0     0     0     0     0     0     0     0
 2004 051   134     0     0     0     0     0     0     0     0
 2004 052   135     0     0     0     0     0     0     0     0
 2004 053   136     0     0     0     0     0     0     0     0
 2004 054   137     0     0     0     0     0     0     0     0
 2004 055   138     0     0     0     0     0     0     0     0
 2004 056   139     0     0     0     0     0     0     0     0
 2004 057   140     0     0     0     0     0     0     0     0
 2004 058   141     0     0     0     0     0     0     0     0
 2004 059   142     0     0     0     0     0     0     0     0
 2004 060   143     0     0     0     0     0     0     0     0
 2004 061   144     0     0     0     0     0     0     0     0
 2004 062   145     0     0     0     0     0     0     0     0
 2004 063   146     0     0     0     0     0     0     0     0
 2004 064   147     0     0     0     0     0     0     0     0
 2004 065   148     0     0     0     0     0     0     0     0
 2004 066   149     0     0     0     0     0     0     0     0
 2004 067   150     0     0     0     0     0     0     0     0
 2004 068   151     0     0     0     0     0     0     0     0
 2004 069   152     0     0     0     0     0     0     0     0
 2004 070   153     0     0     0     0     0     0     0     0
 2004 071   154     0     0     0     0     0     0     0     0
 2004 072   155     0     0     0     0     0     0     0     0
 2004 073   156     0     0     0     0     0     0     0     0
 2004 074   157     0     0     0     0     0     0     0     0
 2004 075   158     0     0     0     0     0     0     0     0
 2004 076   159     0     0     0     0     0     0     0     0
 2004 077   160     0     0     0     0     0     0     0     0
 2004 078   161     0     0     0     0     0     0     0     0
 2004 079   162     0     0     0     0     0     0     0     0
 2004 080   163     0     0     0     0     0     0     0     0
 2004 081   164     0     0     0     0     0     0     0     0
 2004 082   165     0     0     0     0     0     0     0     0
 2004 083   166     0     0     0     0     0     0     0     0
 2004 084   167     0     0     0     0     0     0     0     0
 2004 085   168     0     0     0     0     0     0     0     0
 2004 086   169     0     0     0     0     0     0     0     0
 2004 087   170     0     0     0     0     0     0     0     0
 2004 088   171     0     0     0     0     0     0     0     0
 2004 089   172     0     0     0     0     0     0     0     0
 2004 090   173     0     0     0     0     0     0     0     0
 2004 091   174     0     0     0     0     0     0     0     0
 2004 092   175     0     0     0     0     0     0     0     0
 2004 093   176     0     0     0     0     0     0     0     0
 2004 094   177     0     0     0     0     0     0     0     0
 2004 095   178     0     0     0     0     0     0     0     0
 2004 096   179     0     0     0     0     0     0     0     0
 2004 097   180     0     0     0     0     0     0     0     0
 2004 098   181     0     0     0     0     0     0     0     0
 2004 099   182     0     0     0     0     0     0     0     0
 2004 100   183     0     0     0     0     0     0     0     0
 2004 101   184     0     0     0     0     0     0     0     0
 2004 102   185     0     0     0     0     0     0     0     0
 2004 103   186     0     0     0     0     0     0     0     0
 2004 104   187     0     0     0     0     0     0     0     0
 2004 105   188     0     0     0     0     0     0     0     0
 2004 106   189     0     0     0     0     0     0     0     0
 2004 107   190     0     0     0     0     0     0     0     0
 2004 108   191     0     0     0     0     0     0     0     0
 2004 109   192     0     0     0     0     0     0     0     0
 2004 110   193     0     0     0     0     0     0     0     0
 2004 111   194     0     0     0     0     0     0     0     0
 2004 112   195     0     0     0     0     0     0     0     0
 2004 113   196     0     0     0     0     0     0     0     0
 2004 114   197     0     0     0     0     0     0     0     0
 2004 115   198     0     0     0     0     0     0     0     0
 2004 116   199     0     0     0     0     0     0     0     0
 2004 117   200     0     0     0     0     0     0     0     0
 2004 118   201     0     0     0     0     0     0     0     0
 2004 119   202     0     0     0     0     0     0     0     0
 2004 120   203     0     0     0     0     0     0     0     0
 2004 121   204     0     0     0     0     0     0     0     0
 2004 122   205     0     0     0     0     0     0     0     0
 2004 123   206     0     0     0     0     0     0     0     0
 2004 124   207     0     0     0     0     0     0     0     0
 2004 125   208     0     0     0     0     0     0     0     0
 2004 126   209     0     0     0     0     0     0     0     0
 2004 127   210     0     0     0     0     0     0     0     0
 2004 128   211     0     0     0     0     0     0     0     0
 2004 129   212     0     0     0     0     0     0     0     0
 2004 130   213     0     0     0     0     0     0     0     0
 2004 131   214     0     0     0     0     0     0     0     0
 2004 132   215     0     0     0     0     0     0     0     0
 2004 133   216     0     0     0     0     0     0     0     0
 2004 134   217     0     0     0     0     0     0     0     0
 2004 135   218     0     0     0     0     0     0     0     0
 2004 136   219     0     0     0     0     0     0     0     0
 2004 137   220     0     0     0     0     0     0     0     0
 2004 138   221     0     0     0     0     0     0     0     0
 2004 139   222     0     0     0     0     0     0     0     0
 2004 140   223     0     0     0     0     0     0     0     0
 2004 141   224     0     0     0     0     0     0     0     0
 2004 142   225     0     0     0     0     0     0     0     0
 2004 143   226     0     0     0     0     0     0     0     0
 2004 144   227     0     0     0     0     0     0     0     0
 2004 145   228     0     0     0     0     0     0     0     0
 2004 146   229     0     0     0     0     0     0     0     0
 2004 147   230     0     0     0     0     0     0     0     0
 2004 148   231     0     0     0     0     0     0     0     0
 2004 149   232     0     0     0     0     0     0     0     0
 2004 150   233     0     0     0     0     0     0     0     0
 2004 151   234     0     0     0     0     0     0     0     0
 2004 152   235     0     0     0     0     0     0     0     0
 2004 153   236     0     0     0     0     0     0     0     0
 2004 154   237     0     0     0     0     0     0     0     0
 2004 155   238     0     0     0     0     0     0     0     0
 2004 156   239     0     0     0     0     0     0     0     0
 2004 157   240     0     0     0     0     0     0     0     0
 2004 158   241     0     0     0     0     0     0     0     0
 2004 159   242     0     0     0     0     0     0     0     0
 2004 160   243     0     0     0     0     0     0     0     0
 2004 161   244     0     0     0     0     0     0     0     0
 2004 162   245     0     0     0     0     0     0     0     0
 2004 163   246     0     0     0     0     0     0     0     0
 2004 164   247     0     0     0     0     0     0     0     0
 2004 165   248     0     0     0     0     0     0     0     0
 2004 166   249     0     0     0     0     0     0     0     0
 2004 167   250     0     0     0     1    39     0     0     0
 2004 168   251     0     0     0     1    39     0     0     0
 2004 169   252     0     0     0     1    39     0     0     0
 2004 170   253     1     0     0     1    39     0     0     0
 2004 171   254     2     0     0     1    39     0     0     0
 2004 172   255     3     0     0     1    39     0     0     0
 2004 173   256     4     0     0     1    39     0     0     0
 2004 174   257     5     0     0     1    39     0     0     0
 2004 175   258     6     0     0     1    39     0     0     0
 2004 176   259     7     0     0     1    39     0     0     0
 2004 177   260     8     0     0     1    39     0     0     0
 2004 178   261     9     0     0     1    39     0     0     0
 2004 179   262    10     0     0     1    39     0     0     0
 2004 180   263    11     0     0     1    39     0     0     0
 2004 181   264    12     0     0     1    39     0     0     0
 2004 182   265    13     0     0     1    39     0     0     0
 2004 183   266    14     0     0     1    39     0     0     0
 2004 184   267    15     0     0     1    39     0     0     0
 2004 185   268    16     0     0     1    39     0     0     0
 2004 186   269    17     0     0     1    39     0     0     0
 2004 187   270    18     0     0     1    39     0     0     0
 2004 188   271    19     0     0     1    39     0     0     0
 2004 189   272    20     0     0     1    39     0     0     0
 2004 190   273    21     0     0     1    39     0     0     0
 2004 191   274    22     0     0     1    39     0     0     0
 2004 192   275    23     0     0     1    39     0     0     0
 2004 193   276    24     0     0     1    39     0     0     0
 2004 194   277    25     0     0     1    39     0     0     0
 2004 195   278    26     0     0     1    39     0     0     0
 2004 196   279    27     0     0     1    39     0     0     0
 2004 197   280    28     0     0     1    39     0     0     0
 2004 198   281    29     0     0     1    39     0     0     0
 2004 199   282    30     0     0     1    39     0     0     0
 2004 200   283    31     0     0     1    39     0     0     0
 2004 201   284    32     0     0     1    39     0     0     0
 2004 202   285    33     0     0     1    39     0     0     0
 2004 203   286    34     0     0     1    39     0     0     0
 2004 204   287    35     0     0     1    39     0     0     0
 2004 205   288    36     0     0     1    39     0     0     0
 2004 206   289    37     0     0     1    39     0     0     0
 2004 207   290    38     0     0     1    39     0     0     0
 2004 208   291    39     0     0     1    39     0     0     0
 2004 209   292    40     0     0     1    39     0     0     0
 2004 210   293    41     0     0     1    39     0     0     0
 2004 211   294    42     0     0     1    39     0     0     0
 2004 212   295    43     0     0     1    39     0     0     0
 2004 213   296    44     0     0     1    39     0     0     0
 2004 214   297    45     0     0     1    39     0     0     0
 2004 215   298    46     0     0     1    39     0     0     0
 2004 216   299    47     0     0     1    39     0     0     0
 2004 217   300    48     0     0     1    39     0     0     0
 2004 218   301    49     0     0     1    39     0     0     0
 2004 219   302    50     0     0     1    39     0     0     0
 2004 220   303    51     0     0     1    39     0     0     0
 2004 221   304    52     0     0     1    39     0     0     0
 2004 222   305    53     0     0     1    39     0     0     0
 2004 223   306    54     0     0     1    39     0     0     0
 2004 224   307    55     0     0     1    39     0     0     0
 2004 225   308    56     0     0     1    39     0     0     0
 2004 226   309    57     0     0     1    39     0     0     0
 2004 227   310    58     0     0     1    39     0     0     0
 2004 228   311    59     0     0     1    39     0     0     0
 2004 229   312    60     0     0     1    39     0     0     0
 2004 230   313    61     0     0     1    39     0     0     0
 2004 231   314    62     0     0     1    39     0     0     0
 2004 232   315    63     0     0     1    39     0     0     0
 2004 233   316    64     0     0     1    39     0     0     0
 2004 234   317    65     0     0     1    39     0     0     0
 2004 235   318    66     0     0     1    39     0     0     0
 2004 236   319    67     0     0     1    39     0     0     0
 2004 237   320    68     0     0     1    39     0     0     0
 2004 238   321    69     0     0     1    39     0     0     0
 2004 239   322    70     0     0     1    39     0     0     0
 2004 240   323    71     0     0     1    39     0     0     0
 2004 241   324    72     0     0     1    39     0     0     0
 2004 242   325    73     0     0     1    39     0     0     0
 2004 243   326    74     0     0     1    39     0     0     0
 2004 244   327    75     0     0     1    39     0     0     0
 2004 245   328    76     0     0     1    39     0     0     0
 2004 246   329    77     0     0     1    39     0     0     0
 2004 247   330    78     0     0     1    39     0     0     0
 2004 248   331    79     0     0     1    39     0     0     0
 2004 249   332    80     0     0     1    39     0     0     0
 2004 250   333    81     0     0     1    39     0     0     0
 2004 251   334    82     0     0     1    39     0     0     0
 2004 252   335    83     0     0     1    39     0     0     0
 2004 253   336    84     0     0     1    39     0     0     0
 2004 254   337    85     0     0     1    39     0     0     0
 2004 255   338    86     0     0     1    39     0     0     0
 2004 256   339    87     0     0     1    39     0     0     0
 2004 257   340    88     0     0     1    39     0     0     0
 2004 258   341    89     0     0     1    39     0     0     0
 2004 259   342    90     0     0     1    39     0     0     0
 2004 260   343    91     0     0     1    39     0     0     0
 2004 261   344    92     0     0     1    39     0     0     0
 2004 262   345    93     0     0     1    39     0     0     0
 2004 263   346    94     0     0     1    39     0     0     0
 2004 264   347    95     0     0     1    39     0     0     0
 2004 265   348    96     0     0     1    39     0     0     0
 2004 266   349    97     0     0     1    39     0     0     0
 2004 267   350    98     0     0     1    39     0     0     0
 2004 268   351    99     0     0     1    39     0     0     0
 2004 269   352   100     0     0     1    39     0     0     0
 2004 270   353   101     0     0     1    39     0     0     0
 2004 271   354   102     0     0     1    39     0     0     0
 2004 272   355   103     0     0     1    39     0     0     0
 2004 273   356   104     0     0     1    39     0     0     0
 2004 274   357   105     0     0     1    39     0     0     0
 2004 275   358   106     0     0     1    39     0     0     0
 2004 276   359   107     0     0     1    39     0     0     0
 2004 277   360   108     0     0     1    39     0     0     0
 2004 278   361   109     0     0     1    39     0     0     0
 2004 279   362   110     0     0     1    39     0     0     0
 2004 280   363   111     0     0     1    39     0     0     0
 2004 281   364   112     0     0     1    39     0     0     0
 2004 282   365   113     0     0     1    39     0     0     0
 2004 283   366   114     0     0     1    39     0     0     0
 2004 284   367   115     0     0     1    39     0     0     0
 2004 285   368   116     0     0     1    39     0     0     0
 2004 286   369   117     0     0     1    39     0     0     0
 2004 287   370   118     0     0     1    39     0     0     0
 2004 288   371   119     0     0     1    39     0     0     0
 2004 289   372   120     0     0     1    39     0     0     0
 2004 290   373   121     0     0     1    39     0     0     0
 2004 291   374   122     0     0     1    39     0     0     0
 2004 292   375   123     0     0     1    39     0     0     0
 2004 293   376   124     0     0     1    39     0     0     0
 2004 294   377   125     0     0     1    39     0     0     0

*DSSAT Cropping System Model Ver. 4.5.1.023 -Stub         DEC 04, 2014; 01:35:45
                                                                                
*RUN   4        : N60 P0                    MZCER045 GHWA0401    4              
 MODEL          : MZCER045 - Maize                                              
 EXPERIMENT     : GHWA0401 MZ ON-STATION NXP (EXPERIMENT NO.2) 9 TRT            
 DATA PATH      :                                                               
 TREATMENT  4   : N60 P0                    MZCER045                            
  

@YEAR DOY   DAS   DAP  NAPC  NICM  PAPC  PICM  R#AC RESNC RESPC
 2003 283     1     0     0     0     0     0     0     0     0
 2003 284     2     0     0     0     0     0     0     0     0
 2003 285     3     0     0     0     0     0     0     0     0
 2003 286     4     0     0     0     0     0     0     0     0
 2003 287     5     0     0     0     0     0     0     0     0
 2003 288     6     0     0     0     0     0     0     0     0
 2003 289     7     0     0     0     0     0     0     0     0
 2003 290     8     0     0     0     0     0     0     0     0
 2003 291     9     0     0     0     0     0     0     0     0
 2003 292    10     0     0     0     0     0     0     0     0
 2003 293    11     0     0     0     0     0     0     0     0
 2003 294    12     0     0     0     0     0     0     0     0
 2003 295    13     0     0     0     0     0     0     0     0
 2003 296    14     0     0     0     0     0     0     0     0
 2003 297    15     0     0     0     0     0     0     0     0
 2003 298    16     0     0     0     0     0     0     0     0
 2003 299    17     0     0     0     0     0     0     0     0
 2003 300    18     0     0     0     0     0     0     0     0
 2003 301    19     0     0     0     0     0     0     0     0
 2003 302    20     0     0     0     0     0     0     0     0
 2003 303    21     0     0     0     0     0     0     0     0
 2003 304    22     0     0     0     0     0     0     0     0
 2003 305    23     0     0     0     0     0     0     0     0
 2003 306    24     0     0     0     0     0     0     0     0
 2003 307    25     0     0     0     0     0     0     0     0
 2003 308    26     0     0     0     0     0     0     0     0
 2003 309    27     0     0     0     0     0     0     0     0
 2003 310    28     0     0     0     0     0     0     0     0
 2003 311    29     0     0     0     0     0     0     0     0
 2003 312    30     0     0     0     0     0     0     0     0
 2003 313    31     0     0     0     0     0     0     0     0
 2003 314    32     0     0     0     0     0     0     0     0
 2003 315    33     0     0     0     0     0     0     0     0
 2003 316    34     0     0     0     0     0     0     0     0
 2003 317    35     0     0     0     0     0     0     0     0
 2003 318    36     0     0     0     0     0     0     0     0
 2003 319    37     0     0     0     0     0     0     0     0
 2003 320    38     0     0     0     0     0     0     0     0
 2003 321    39     0     0     0     0     0     0     0     0
 2003 322    40     0     0     0     0     0     0     0     0
 2003 323    41     0     0     0     0     0     0     0     0
 2003 324    42     0     0     0     0     0     0     0     0
 2003 325    43     0     0     0     0     0     0     0     0
 2003 326    44     0     0     0     0     0     0     0     0
 2003 327    45     0     0     0     0     0     0     0     0
 2003 328    46     0     0     0     0     0     0     0     0
 2003 329    47     0     0     0     0     0     0     0     0
 2003 330    48     0     0     0     0     0     0     0     0
 2003 331    49     0     0     0     0     0     0     0     0
 2003 332    50     0     0     0     0     0     0     0     0
 2003 333    51     0     0     0     0     0     0     0     0
 2003 334    52     0     0     0     0     0     0     0     0
 2003 335    53     0     0     0     0     0     0     0     0
 2003 336    54     0     0     0     0     0     0     0     0
 2003 337    55     0     0     0     0     0     0     0     0
 2003 338    56     0     0     0     0     0     0     0     0
 2003 339    57     0     0     0     0     0     0     0     0
 2003 340    58     0     0     0     0     0     0     0     0
 2003 341    59     0     0     0     0     0     0     0     0
 2003 342    60     0     0     0     0     0     0     0     0
 2003 343    61     0     0     0     0     0     0     0     0
 2003 344    62     0     0     0     0     0     0     0     0
 2003 345    63     0     0     0     0     0     0     0     0
 2003 346    64     0     0     0     0     0     0     0     0
 2003 347    65     0     0     0     0     0     0     0     0
 2003 348    66     0     0     0     0     0     0     0     0
 2003 349    67     0     0     0     0     0     0     0     0
 2003 350    68     0     0     0     0     0     0     0     0
 2003 351    69     0     0     0     0     0     0     0     0
 2003 352    70     0     0     0     0     0     0     0     0
 2003 353    71     0     0     0     0     0     0     0     0
 2003 354    72     0     0     0     0     0     0     0     0
 2003 355    73     0     0     0     0     0     0     0     0
 2003 356    74     0     0     0     0     0     0     0     0
 2003 357    75     0     0     0     0     0     0     0     0
 2003 358    76     0     0     0     0     0     0     0     0
 2003 359    77     0     0     0     0     0     0     0     0
 2003 360    78     0     0     0     0     0     0     0     0
[...]
 2003 348    66     0     0     0     0     0     0     0     0
 2003 349    67     0     0     0     0     0     0     0     0
 2003 350    68     0     0     0     0     0     0     0     0
 2003 351    69     0     0     0     0     0     0     0     0
 2003 352    70     0     0     0     0     0     0     0     0
 2003 353    71     0     0     0     0     0     0     0     0
 2003 354    72     0     0     0     0     0     0     0     0
 2003 355    73     0     0     0     0     0     0     0     0
 2003 356    74     0     0     0     0     0     0     0     0
 2003 357    75     0     0     0     0     0     0     0     0
 2003 358    76     0     0     0     0     0     0     0     0
 2003 359    77     0     0     0     0     0     0     0     0
 2003 360    78     0     0     0     0     0     0     0     0
 2003 361    79     0     0     0     0     0     0     0     0
 2003 362    80     0     0     0     0     0     0     0     0
 2003 363    81     0     0     0     0     0     0     0     0
 2003 364    82     0     0     0     0     0     0     0     0
 2003 365    83     0     0     0     0     0     0     0     0
 2004 001    84     0     0     0     0     0     0     0     0
 2004 002    85     0     0     0     0     0     0     0     0
 2004 003    86     0     0     0     0     0     0     0     0
 2004 004    87     0     0     0     0     0     0     0     0
 2004 005    88     0     0     0     0     0     0     0     0
 2004 006    89     0     0     0     0     0     0     0     0
 2004 007    90     0     0     0     0     0     0     0     0
 2004 008    91     0     0     0     0     0     0     0     0
 2004 009    92     0     0     0     0     0     0     0     0
 2004 010    93     0     0     0     0     0     0     0     0
 2004 011    94     0     0     0     0     0     0     0     0
 2004 012    95     0     0     0     0     0     0     0     0
 2004 013    96     0     0     0     0     0     0     0     0
 2004 014    97     0     0     0     0     0     0     0     0
 2004 015    98     0     0     0     0     0     0     0     0
 2004 016    99     0     0     0     0     0     0     0     0
 2004 017   100     0     0     0     0     0     0     0     0
 2004 018   101     0     0     0     0     0     0     0     0
 2004 019   102     0     0     0     0     0     0     0     0
 2004 020   103     0     0     0     0     0     0     0     0
 2004 021   104     0     0     0     0     0     0     0     0
 2004 022   105     0     0     0     0     0     0     0     0
 2004 023   106     0     0     0     0     0     0     0     0
 2004 024   107     0     0     0     0     0     0     0     0
 2004 025   108     0     0     0     0     0     0     0     0
 2004 026   109     0     0     0     0     0     0     0     0
 2004 027   110     0     0     0     0     0     0     0     0
 2004 028   111     0     0     0     0     0     0     0     0
 2004 029   112     0     0     0     0     0     0     0     0
 2004 030   113     0     0     0     0     0     0     0     0
 2004 031   114     0     0     0     0     0     0     0     0
 2004 032   115     0     0     0     0     0     0     0     0
 2004 033   116     0     0     0     0     0     0     0     0
 2004 034   117     0     0     0     0     0     0     0     0
 2004 035   118     0     0     0     0     0     0     0     0
 2004 036   119     0     0     0     0     0     0     0     0
 2004 037   120     0     0     0     0     0     0     0     0
 2004 038   121     0     0     0     0     0     0     0     0
 2004 039   122     0     0     0     0     0     0     0     0
 2004 040   123     0     0     0     0     0     0     0     0
 2004 041   124     0     0     0     0     0     0     0     0
 2004 042   125     0     0     0     0     0     0     0     0
 2004 043   126     0     0     0     0     0     0     0     0
 2004 044   127     0     0     0     0     0     0     0     0
 2004 045   128     0     0     0     0     0     0     0     0
 2004 046   129     0     0     0     0     0     0     0     0
 2004 047   130     0     0     0     0     0     0     0     0
 2004 048   131     0     0     0     0     0     0     0     0
 2004 049   132     0     0     0     0     0     0     0     0
 2004 050   133     0     0     0     0     0     0     0     0
 2004 051   134     0     0     0     0     0     0     0     0
 2004 052   135     0     0     0     0     0     0     0     0
 2004 053   136     0     0     0     0     0     0     0     0
 2004 054   137     0     0     0     0     0     0     0     0
 2004 055   138     0     0     0     0     0     0     0     0
 2004 056   139     0     0     0     0     0     0     0     0
 2004 057   140     0     0     0     0     0     0     0     0
 2004 058   141     0     0     0     0     0     0     0     0
 2004 059   142     0     0     0     0     0     0     0     0
 2004 060   143     0     0     0     0     0     0     0     0
 2004 061   144     0     0     0     0     0     0     0     0
 2004 062   145     0     0     0     0     0     0     0     0
 2004 063   146     0     0     0     0     0     0     0     0
 2004 064   147     0     0     0     0     0     0     0     0
 2004 065   148     0     0     0     0     0     0     0     0
 2004 066   149     0     0     0     0     0     0     0     0
 2004 067   150     0     0     0     0     0     0     0     0
 2004 068   151     0     0     0     0     0     0     0     0
 2004 069   152     0     0     0     0     0     0     0     0
 2004 070   153     0     0     0     0     0     0     0     0
 2004 071   154     0     0     0     0     0     0     0     0
 2004 072   155     0     0     0     0     0     0     0     0
 2004 073   156     0     0     0     0     0     0     0     0
 2004 074   157     0     0     0     0     0     0     0     0
 2004 075   158     0     0     0     0     0     0     0     0
 2004 076   159     0     0     0     0     0     0     0     0
 2004 077   160     0     0     0     0     0     0     0     0
 2004 078   161     0     0     0     0     0     0     0     0
 2004 079   162     0     0     0     0     0     0     0     0
 2004 080   163     0     0     0     0     0     0     0     0
 2004 081   164     0     0     0     0     0     0     0     0
 2004 082   165     0     0     0     0     0     0     0     0
 2004 083   166     0     0     0     0     0     0     0     0
 2004 084   167     0     0     0     0     0     0     0     0
 2004 085   168     0     0     0     0     0     0     0     0
 2004 086   169     0     0     0     0     0     0     0     0
 2004 087   170     0     0     0     0     0     0     0     0
 2004 088   171     0     0     0     0     0     0     0     0
 2004 089   172     0     0     0     0     0     0     0     0
 2004 090   173     0     0     0     0     0     0     0     0
 2004 091   174     0     0     0     0     0     0     0     0
 2004 092   175     0     0     0     0     0     0     0     0
 2004 093   176     0     0     0     0     0     0     0     0
 2004 094   177     0     0     0     0     0     0     0     0
 2004 095   178     0     0     0     0     0     0     0     0
 2004 096   179     0     0     0     0     0     0     0     0
 2004 097   180     0     0     0     0     0     0     0     0
 2004 098   181     0     0     0     0     0     0     0     0
 2004 099   182     0     0     0     0     0     0     0     0
 2004 100   183     0     0     0     0     0     0     0     0
 2004 101   184     0     0     0     0     0     0     0     0
 2004 102   185     0     0     0     0     0     0     0     0
 2004 103   186     0     0     0     0     0     0     0     0
 2004 104   187     0     0     0     0     0     0     0     0
 2004 105   188     0     0     0     0     0     0     0     0
 2004 106   189     0     0     0     0     0     0     0     0
 2004 107   190     0     0     0     0     0     0     0     0
 2004 108   191     0     0     0     0     0     0     0     0
 2004 109   192     0     0     0     0     0     0     0     0
 2004 110   193     0     0     0     0     0     0     0     0
 2004 111   194     0     0     0     0     0     0     0     0
 2004 112   195     0     0     0     0     0     0     0     0
 2004 113   196     0     0     0     0     0     0     0     0
 2004 114   197     0     0     0     0     0     0     0     0
 2004 115   198     0     0     0     0     0     0     0     0
 2004 116   199     0     0     0     0     0     0     0     0
 2004 117   200     0     0     0     0     0     0     0     0
 2004 118   201     0     0     0     0     0     0     0     0
 2004 119   202     0     0     0     0     0     0     0     0
 2004 120   203     0     0     0     0     0     0     0     0
 2004 121   204     0     0     0     0     0     0     0     0
 2004 122   205     0     0     0     0     0     0     0     0
 2004 123   206     0     0     0     0     0     0     0     0
 2004 124   207     0     0     0     0     0     0     0     0
 2004 125   208     0     0     0     0     0     0     0     0
 2004 126   209     0     0     0     0     0     0     0     0
 2004 127   210     0     0     0     0     0     0     0     0
 2004 128   211     0     0     0     0     0     0     0     0
 2004 129   212     0     0     0     0     0     0     0     0
 2004 130   213     0     0     0     0     0     0     0     0
 2004 131   214     0     0     0     0     0     0     0     0
 2004 132   215     0     0     0     0     0     0     0     0
 2004 133   216     0     0     0     0     0     0     0     0
 2004 134   217     0     0     0     0     0     0     0     0
 2004 135   218     0     0     0     0     0     0     0     0
 2004 136   219     0     0     0     0     0     0     0     0
 2004 137   220     0     0     0     0     0     0     0     0
 2004 138   221     0     0     0     0     0     0     0     0
 2004 139   222     0     0     0     0     0     0     0     0
 2004 140   223     0     0     0     0     0     0     0     0
 2004 141   224     0     0     0     0     0     0     0     0
 2004 142   225     0     0     0     0     0     0     0     0
 2004 143   226     0     0     0     0     0     0     0     0
 2004 144   227     0     0     0     0     0     0     0     0
 2004 145   228     0     0     0     0     0     0     0     0
 2004 146   229     0     0     0     0     0     0     0     0
 2004 147   230     0     0     0     0     0     0     0     0
 2004 148   231     0     0     0     0     0     0     0     0
 2004 149   232     0     0     0     0     0     0     0     0
 2004 150   233     0     0     0     0     0     0     0     0
 2004 151   234     0     0     0     0     0     0     0     0
 2004 152   235     0     0     0     0     0     0     0     0
 2004 153   236     0     0     0     0     0     0     0     0
 2004 154   237     0     0     0     0     0     0     0     0
 2004 155   238     0     0     0     0     0     0     0     0
 2004 156   239     0     0     0     0     0     0     0     0
 2004 157   240     0     0     0     0     0     0     0     0
 2004 158   241     0     0     0     0     0     0     0     0
 2004 159   242     0     0     0     0     0     0     0     0
 2004 160   243     0     0     0     0     0     0     0     0
 2004 161   244     0     0     0     0     0     0     0     0
 2004 162   245     0     0     0     0     0     0     0     0
 2004 163   246     0     0     0     0     0     0     0     0
 2004 164   247     0     0     0     0     0     0     0     0
 2004 165   248     0     0     0     0     0     0     0     0
 2004 166   249     0     0     0     0     0     0     0     0
 2004 167   250     0     0     0     1    39     0     0     0
 2004 168   251     0     0     0     1    39     0     0     0
 2004 169   252     0     0     0     1    39     0     0     0
 2004 170   253     1     0     0     1    39     0     0     0
 2004 171   254     2     0     0     1    39     0     0     0
 2004 172   255     3     0     0     1    39     0     0     0
 2004 173   256     4     0     0     1    39     0     0     0
 2004 174   257     5     0     0     1    39     0     0     0
 2004 175   258     6     0     0     1    39     0     0     0
 2004 176   259     7     0     0     1    39     0     0     0
 2004 177   260     8     0     0     1    39     0     0     0
 2004 178   261     9     0     0     1    39     0     0     0
 2004 179   262    10     0     0     1    39     0     0     0
 2004 180   263    11     0     0     1    39     0     0     0
 2004 181   264    12     0     0     1    39     0     0     0
 2004 182   265    13     0     0     1    39     0     0     0
 2004 183   266    14     0     0     1    39     0     0     0
 2004 184   267    15     0     0     1    39     0     0     0
 2004 185   268    16     0     0     1    39     0     0     0
 2004 186   269    17     0     0     1    39     0     0     0
 2004 187   270    18     1    60     1    39     0     0     0
 2004 188   271    19     1    60     1    39     0     0     0
 2004 189   272    20     1    60     1    39     0     0     0
 2004 190   273    21     1    60     1    39     0     0     0
 2004 191   274    22     1    60     1    39     0     0     0
 2004 192   275    23     1    60     1    39     0     0     0
 2004 193   276    24     1    60     1    39     0     0     0
 2004 194   277    25     1    60     1    39     0     0     0
 2004 195   278    26     1    60     1    39     0     0     0
 2004 196   279    27     1    60     1    39     0     0     0
 2004 197   280    28     2   120     1    39     0     0     0
 2004 198   281    29     2   120     1    39     0     0     0
 2004 199   282    30     2   120     1    39     0     0     0
 2004 200   283    31     2   120     1    39     0     0     0
 2004 201   284    32     2   120     1    39     0     0     0
 2004 202   285    33     2   120     1    39     0     0     0
 2004 203   286    34     2   120     1    39     0     0     0
 2004 204   287    35     2   120     1    39     0     0     0
 2004 205   288    36     2   120     1    39     0     0     0
 2004 206   289    37     2   120     1    39     0     0     0
 2004 207   290    38     2   120     1    39     0     0     0
 2004 208   291    39     2   120     1    39     0     0     0
 2004 209   292    40     2   120     1    39     0     0     0
 2004 210   293    41     2   120     1    39     0     0     0
 2004 211   294    42     2   120     1    39     0     0     0
 2004 212   295    43     2   120     1    39     0     0     0
 2004 213   296    44     2   120     1    39     0     0     0
 2004 214   297    45     2   120     1    39     0     0     0
 2004 215   298    46     2   120     1    39     0     0     0
 2004 216   299    47     2   120     1    39     0     0     0
 2004 217   300    48     2   120     1    39     0     0     0
 2004 218   301    49     2   120     1    39     0     0     0
 2004 219   302    50     2   120     1    39     0     0     0
 2004 220   303    51     2   120     1    39     0     0     0
 2004 221   304    52     2   120     1    39     0     0     0
 2004 222   305    53     2   120     1    39     0     0     0
 2004 223   306    54     2   120     1    39     0     0     0
 2004 224   307    55     2   120     1    39     0     0     0
 2004 225   308    56     2   120     1    39     0     0     0
 2004 226   309    57     2   120     1    39     0     0     0
 2004 227   310    58     2   120     1    39     0     0     0
 2004 228   311    59     2   120     1    39     0     0     0
 2004 229   312    60     2   120     1    39     0     0     0
 2004 230   313    61     2   120     1    39     0     0     0
 2004 231   314    62     2   120     1    39     0     0     0
 2004 232   315    63     2   120     1    39     0     0     0
 2004 233   316    64     2   120     1    39     0     0     0
 2004 234   317    65     2   120     1    39     0     0     0
 2004 235   318    66     2   120     1    39     0     0     0
 2004 236   319    67     2   120     1    39     0     0     0
 2004 237   320    68     2   120     1    39     0     0     0
 2004 238   321    69     2   120     1    39     0     0     0
 2004 239   322    70     2   120     1    39     0     0     0
 2004 240   323    71     2   120     1    39     0     0     0
 2004 241   324    72     2   120     1    39     0     0     0
 2004 242   325    73     2   120     1    39     0     0     0
 2004 243   326    74     2   120     1    39     0     0     0
 2004 244   327    75     2   120     1    39     0     0     0
 2004 245   328    76     2   120     1    39     0     0     0
 2004 246   329    77     2   120     1    39     0     0     0
 2004 247   330    78     2   120     1    39     0     0     0
 2004 248   331    79     2   120     1    39     0     0     0
 2004 249   332    80     2   120     1    39     0     0     0
 2004 250   333    81     2   120     1    39     0     0     0
 2004 251   334    82     2   120     1    39     0     0     0
 2004 252   335    83     2   120     1    39     0     0     0
 2004 253   336    84     2   120     1    39     0     0     0
 2004 254   337    85     2   120     1    39     0     0     0
 2004 255   338    86     2   120     1    39     0     0     0
 2004 256   339    87     2   120     1    39     0     0     0
 2004 257   340    88     2   120     1    39     0     0     0
 2004 258   341    89     2   120     1    39     0     0     0
 2004 259   342    90     2   120     1    39     0     0     0
 2004 260   343    91     2   120     1    39     0     0     0
 2004 261   344    92     2   120     1    39     0     0     0
 2004 262   345    93     2   120     1    39     0     0     0
 2004 263   346    94     2   120     1    39     0     0     0
 2004 264   347    95     2   120     1    39     0     0     0
 2004 265   348    96     2   120     1    39     0     0     0
 2004 266   349    97     2   120     1    39     0     0     0
 2004 267   350    98     2   120     1    39     0     0     0
 2004 268   351    99     2   120     1    39     0     0     0
 2004 269   352   100     2   120     1    39     0     0     0
 2004 270   353   101     2   120     1    39     0     0     0
 2004 271   354   102     2   120     1    39     0     0     0
 2004 272   355   103     2   120     1    39     0     0     0
 2004 273   356   104     2   120     1    39     0     0     0
 2004 274   357   105     2   120     1    39     0     0     0
 2004 275   358   106     2   120     1    39     0     0     0
 2004 276   359   107     2   120     1    39     0     0     0
 2004 277   360   108     2   120     1    39     0     0     0
 2004 278   361   109     2   120     1    39     0     0     0
 2004 279   362   110     2   120     1    39     0     0     0
 2004 280   363   111     2   120     1    39     0     0     0
 2004 281   364   112     2   120     1    39     0     0     0
 2004 282   365   113     2   120     1    39     0     0     0
 2004 283   366   114     2   120     1    39     0     0     0
 2004 284   367   115     2   120     1    39     0     0     0
 2004 285   368   116     2   120     1    39     0     0     0
 2004 286   369   117     2   120     1    39     0     0     0
 2004 287   370   118     2   120     1    39     0     0     0
 2004 288   371   119     2   120     1    39     0     0     0
 2004 289   372   120     2   120     1    39     0     0     0
 2004 290   373   121     2   120     1    39     0     0     0
 2004 291   374   122     2   120     1    39     0     0     0
 2004 292   375   123     2   120     1    39     0     0     0
 2004 293   376   124     2   120     1    39     0     0     0
 2004 294   377   125     2   120     1    39     0     0     0
