*Surface Mulch daily output file

*DSSAT Cropping System Model Ver. 4.5.1.023 -Stub         OCT 13, 2014; 10:39:36
                                                                                
*RUN   1        : N0 P0                     MZCER045 GHWA0401    1              
 MODEL          : MZCER045 - Maize                                              
 EXPERIMENT     : GHWA0401 MZ                                                   
 DATA PATH      :                                                               
 TREATMENT  1   : N0 P0                     MZCER045                            
  
@YEAR DOY   DAS    MCFD   MDEPD    MWAD    MWTD
 2003 282     0   0.365    0.13    1512    0.26
 2003 283     1   0.356    0.12    1465    0.18
 2003 284     2   0.348    0.12    1424    0.41
 2003 285     3   0.340    0.11    1386    0.43
 2003 286     4   0.332    0.11    1346    0.41
 2003 287     5   0.324    0.10    1305    0.48
 2003 288     6   0.317    0.10    1271    0.44
 2003 289     7   0.311    0.09    1240    0.46
 2003 290     8   0.305    0.09    1213    0.43
 2003 291     9   0.300    0.08    1188    0.41
 2003 292    10   0.294    0.08    1161    0.31
 2003 293    11   0.289    0.08    1136    0.23
 2003 294    12   0.285    0.08    1116    0.17
 2003 295    13   0.281    0.07    1100    0.13
 2003 296    14   0.278    0.07    1085    0.40
 2003 297    15   0.273    0.07    1061    0.32
 2003 298    16   0.267    0.06    1033    0.24
 2003 299    17   0.261    0.06    1009    0.19
 2003 300    18   0.257    0.06     989    0.15
 2003 301    19   0.253    0.06     973    0.11
 2003 302    20   0.250    0.06     959    0.09
 2003 303    21   0.247    0.06     947    0.34
 2003 304    22   0.243    0.05     928    0.27
 2003 305    23   0.239    0.05     909    0.21
 2003 306    24   0.235    0.05     894    0.17
 2003 307    25   0.232    0.05     880    0.14
 2003 308    26   0.229    0.05     868    0.11
 2003 309    27   0.227    0.05     859    0.09
 2003 310    28   0.225    0.04     850    0.30
 2003 311    29   0.222    0.04     838    0.26
 2003 312    30   0.219    0.04     823    0.30
 2003 313    31   0.215    0.04     808    0.25
 2003 314    32   0.212    0.04     794    0.20
 2003 315    33   0.209    0.04     783    0.17
 2003 316    34   0.207    0.04     774    0.14
 2003 317    35   0.205    0.04     765    0.11
 2003 318    36   0.203    0.04     758    0.09
 2003 319    37   0.202    0.04     752    0.08
 2003 320    38   0.201    0.03     746    0.06
 2003 321    39   0.200    0.03     742    0.05
 2003 322    40   0.199    0.03     738    0.04
 2003 323    41   0.198    0.03     735    0.04
 2003 324    42   0.197    0.03     733    0.03
 2003 325    43   0.197    0.03     731    0.03
 2003 326    44   0.197    0.03     729    0.02
 2003 327    45   0.196    0.03     729    0.02
 2003 328    46   0.196    0.03     728    0.01
 2003 329    47   0.196    0.03     728    0.01
 2003 330    48   0.196    0.03     727    0.01
 2003 331    49   0.196    0.03     727    0.01
 2003 332    50   0.196    0.03     726    0.01
 2003 333    51   0.196    0.03     726    0.01
 2003 334    52   0.196    0.03     725    0.00
 2003 335    53   0.195    0.03     725    0.00
 2003 336    54   0.195    0.03     724    0.00
 2003 337    55   0.195    0.03     724    0.25
 2003 338    56   0.195    0.03     724    0.21
 2003 339    57   0.195    0.03     723    0.18
 2003 340    58   0.195    0.03     723    0.15
 2003 341    59   0.195    0.03     722    0.12
 2003 342    60   0.195    0.03     722    0.10
 2003 343    61   0.195    0.03     721    0.09
 2003 344    62   0.194    0.03     721    0.07
 2003 345    63   0.194    0.03     720    0.06
 2003 346    64   0.194    0.03     720    0.05
 2003 347    65   0.194    0.03     719    0.04
 2003 348    66   0.194    0.03     719    0.03
 2003 349    67   0.194    0.03     719    0.03
 2003 350    68   0.194    0.03     718    0.02
 2003 351    69   0.194    0.03     718    0.02
 2003 352    70   0.194    0.03     717    0.02
 2003 353    71   0.193    0.03     717    0.01
 2003 354    72   0.193    0.03     716    0.01
 2003 355    73   0.193    0.03     716    0.01
 2003 356    74   0.193    0.03     715    0.01
 2003 357    75   0.193    0.03     715    0.01
 2003 358    76   0.193    0.03     715    0.01
 2003 359    77   0.193    0.03     714    0.00
 2003 360    78   0.193    0.03     714    0.00
 2003 361    79   0.193    0.03     713    0.00
 2003 362    80   0.193    0.03     713    0.00
 2003 363    81   0.192    0.03     712    0.00
 2003 364    82   0.192    0.03     712    0.00
 2003 365    83   0.192    0.03     712    0.00
 2004 001    84   0.192    0.03     711    0.00
 2004 002    85   0.192    0.03     711    0.00
 2004 003    86   0.192    0.03     710    0.00
 2004 004    87   0.192    0.03     710    0.00
 2004 005    88   0.192    0.03     710    0.00
 2004 006    89   0.192    0.03     709    0.00
 2004 007    90   0.192    0.03     709    0.00
 2004 008    91   0.191    0.03     708    0.00
 2004 009    92   0.191    0.03     708    0.00
 2004 010    93   0.191    0.03     707    0.00
 2004 011    94   0.191    0.03     707    0.00
 2004 012    95   0.191    0.03     707    0.00
 2004 013    96   0.191    0.03     706    0.00
 2004 014    97   0.191    0.03     706    0.00
 2004 015    98   0.191    0.03     705    0.00
 2004 016    99   0.191    0.03     705    0.00
 2004 017   100   0.190    0.03     704    0.00
 2004 018   101   0.190    0.03     704    0.00
 2004 019   102   0.190    0.03     704    0.00
 2004 020   103   0.190    0.03     703    0.25
 2004 021   104   0.189    0.03     696    0.21
 2004 022   105   0.186    0.03     685    0.17
 2004 023   106   0.183    0.03     673    0.15
 2004 024   107   0.181    0.03     664    0.12
 2004 025   108   0.179    0.03     657    0.10
 2004 026   109   0.177    0.03     650    0.09
 2004 027   110   0.176    0.03     645    0.08
 2004 028   111   0.175    0.03     640    0.06
 2004 029   112   0.174    0.03     635    0.05
 2004 030   113   0.173    0.03     632    0.05
 2004 031   114   0.172    0.03     628    0.04
 2004 032   115   0.171    0.02     626    0.03
 2004 033   116   0.171    0.02     624    0.03
 2004 034   117   0.170    0.02     622    0.02
 2004 035   118   0.170    0.02     621    0.02
 2004 036   119   0.170    0.02     620    0.02
 2004 037   120   0.170    0.02     620    0.02
 2004 038   121   0.170    0.02     619    0.01
 2004 039   122   0.170    0.02     619    0.01
 2004 040   123   0.169    0.02     619    0.01
 2004 041   124   0.169    0.02     619    0.01
 2004 042   125   0.169    0.02     618    0.01
 2004 043   126   0.169    0.02     618    0.01
 2004 044   127   0.169    0.02     618    0.01
 2004 045   128   0.169    0.02     617    0.00
 2004 046   129   0.169    0.02     617    0.00
 2004 047   130   0.169    0.02     617    0.00
 2004 048   131   0.169    0.02     616    0.00
 2004 049   132   0.169    0.02     616    0.00
 2004 050   133   0.169    0.02     615    0.00
 2004 051   134   0.169    0.02     615    0.00
 2004 052   135   0.168    0.02     615    0.00
 2004 053   136   0.168    0.02     614    0.00
 2004 054   137   0.168    0.02     614    0.00
 2004 055   138   0.168    0.02     614    0.00
 2004 056   139   0.168    0.02     613    0.00
 2004 057   140   0.168    0.02     613    0.00
 2004 058   141   0.168    0.02     612    0.00
 2004 059   142   0.168    0.02     612    0.21
 2004 060   143   0.166    0.02     607    0.18
 2004 061   144   0.164    0.02     596    0.22
 2004 062   145   0.161    0.02     586    0.20
 2004 063   146   0.159    0.02     576    0.18
 2004 064   147   0.157    0.02     568    0.15
 2004 065   148   0.155    0.02     562    0.13
 2004 066   149   0.154    0.02     557    0.11
 2004 067   150   0.153    0.02     552    0.10
 2004 068   151   0.152    0.02     549    0.09
 2004 069   152   0.151    0.02     546    0.08
 2004 070   153   0.150    0.02     543    0.07
 2004 071   154   0.150    0.02     541    0.06
 2004 072   155   0.149    0.02     539    0.05
 2004 073   156   0.149    0.02     537    0.04
 2004 074   157   0.148    0.02     535    0.04
 2004 075   158   0.148    0.02     534    0.03
 2004 076   159   0.148    0.02     533    0.03
 2004 077   160   0.148    0.02     533    0.03
 2004 078   161   0.148    0.02     532    0.02
 2004 079   162   0.148    0.02     532    0.02
 2004 080   163   0.147    0.02     532    0.02
 2004 081   164   0.147    0.02     531    0.01
 2004 082   165   0.147    0.02     531    0.01
 2004 083   166   0.147    0.02     531    0.01
 2004 084   167   0.147    0.02     531    0.01
 2004 085   168   0.147    0.02     530    0.01
 2004 086   169   0.147    0.02     530    0.01
 2004 087   170   0.147    0.02     530    0.01
 2004 088   171   0.147    0.02     529    0.01
 2004 089   172   0.147    0.02     529    0.19
 2004 090   173   0.146    0.02     525    0.16
 2004 091   174   0.144    0.02     517    0.14
 2004 092   175   0.142    0.02     509    0.13
 2004 093   176   0.140    0.02     502    0.11
 2004 094   177   0.138    0.02     496    0.10
 2004 095   178   0.137    0.01     491    0.09
 2004 096   179   0.136    0.01     487    0.08
 2004 097   180   0.135    0.01     484    0.07
 2004 098   181   0.134    0.01     480    0.06
 2004 099   182   0.133    0.01     478    0.17
 2004 100   183   0.132    0.01     473    0.15
 2004 101   184   0.131    0.01     467    0.17
 2004 102   185   0.129    0.01     462    0.15
 2004 103   186   0.128    0.01     457    0.13
 2004 104   187   0.127    0.01     451    0.12
 2004 105   188   0.125    0.01     447    0.16
 2004 106   189   0.124    0.01     442    0.14
 2004 107   190   0.123    0.01     437    0.13
 2004 108   191   0.122    0.01     432    0.11
 2004 109   192   0.120    0.01     428    0.10
 2004 110   193   0.119    0.01     424    0.09
 2004 111   194   0.119    0.01     421    0.15
 2004 112   195   0.118    0.01     418    0.13
 2004 113   196   0.117    0.01     413    0.15
 2004 114   197   0.115    0.01     409    0.13
 2004 115   198   0.114    0.01     405    0.14
 2004 116   199   0.113    0.01     400    0.13
 2004 117   200   0.112    0.01     396    0.14
 2004 118   201   0.111    0.01     392    0.13
 2004 119   202   0.110    0.01     389    0.12
 2004 120   203   0.109    0.01     385    0.14
 2004 121   204   0.108    0.01     382    0.12
 2004 122   205   0.107    0.01     379    0.11
 2004 123   206   0.107    0.01     375    0.10
 2004 124   207   0.106    0.01     372    0.09
 2004 125   208   0.105    0.01     370    0.13
 2004 126   209   0.104    0.01     367    0.13
 2004 127   210   0.103    0.01     363    0.11
 2004 128   211   0.102    0.01     360    0.10
 2004 129   212   0.102    0.01     357    0.10
 2004 130   213   0.101    0.01     355    0.09
 2004 131   214   0.100    0.01     353    0.08
 2004 132   215   0.100    0.01     351    0.12
 2004 133   216   0.099    0.01     349    0.11
 2004 134   217   0.098    0.01     345    0.10
 2004 135   218   0.098    0.01     342    0.12
 2004 136   219   0.097    0.01     339    0.12
 2004 137   220   0.096    0.01     337    0.11
 2004 138   221   0.095    0.01     334    0.10
 2004 139   222   0.095    0.01     331    0.09
 2004 140   223   0.094    0.01     329    0.12
 2004 141   224   0.094    0.01     327    0.11
 2004 142   225   0.093    0.01     325    0.10
 2004 143   226   0.092    0.01     322    0.09
 2004 144   227   0.092    0.01     320    0.11
 2004 145   228   0.091    0.01     318    0.10
 2004 146   229   0.090    0.01     315    0.10
 2004 147   230   0.090    0.01     313    0.11
 2004 148   231   0.089    0.01     311    0.10
 2004 149   232   0.088    0.01     309    0.11
 2004 150   233   0.088    0.01     306    0.11
 2004 151   234   0.087    0.01     304    0.10
 2004 152   235   0.087    0.01     302    0.09
 2004 153   236   0.086    0.01     300    0.11
 2004 154   237   0.085    0.01     298    0.10
 2004 155   238   0.085    0.01     296    0.10
 2004 156   239   0.084    0.01     294    0.09
 2004 157   240   0.084    0.01     292    0.08
 2004 158   241   0.083    0.01     290    0.08
 2004 159   242   0.083    0.01     289    0.10
 2004 160   243   0.083    0.01     287    0.09
 2004 161   244   0.082    0.01     286    0.08
 2004 162   245   0.082    0.01     285    0.08
 2004 163   246   0.082    0.01     284    0.10
 2004 164   247   0.081    0.01     283    0.10
 2004 165   248   0.081    0.01     281    0.10
 2004 166   249   0.080    0.00     279    0.10
 2004 167   250   0.080    0.00     277    0.10
 2004 168   251   0.079    0.00     275    0.09
 2004 169   252   0.079    0.00     273    0.10
 2004 170   253   0.078    0.00     271    0.09
 2004 171   254   0.078    0.00     270    0.08
 2004 172   255   0.077    0.00     268    0.09
 2004 173   256   0.077    0.00     267    0.09
 2004 174   257   0.076    0.00     265    0.09
 2004 175   258   0.076    0.00     263    0.08
 2004 176   259   0.076    0.00     262    0.08
 2004 177   260   0.075    0.00     260    0.07
 2004 178   261   0.075    0.00     259    0.09
 2004 179   262   0.075    0.00     258    0.09
 2004 180   263   0.074    0.00     257    0.08
 2004 181   264   0.074    0.00     255    0.08
 2004 182   265   0.073    0.00     253    0.09
 2004 183   266   0.073    0.00     252    0.08
 2004 184   267   0.072    0.00     250    0.08
 2004 185   268   0.072    0.00     249    0.09
 2004 186   269   0.072    0.00     248    0.09
 2004 187   270   0.071    0.00     246    0.09
 2004 188   271   0.071    0.00     245    0.09
 2004 189   272   0.071    0.00     244    0.09
 2004 190   273   0.070    0.00     242    0.09
 2004 191   274   0.070    0.00     241    0.08
 2004 192   275   0.069    0.00     239    0.08
 2004 193   276   0.069    0.00     238    0.08
 2004 194   277   0.069    0.00     237    0.08
 2004 195   278   0.068    0.00     236    0.08
 2004 196   279   0.068    0.00     234    0.08
 2004 197   280   0.068    0.00     233    0.07
 2004 198   281   0.067    0.00     232    0.07
 2004 199   282   0.067    0.00     231    0.08
 2004 200   283   0.067    0.00     230    0.08
 2004 201   284   0.066    0.00     229    0.07
 2004 202   285   0.066    0.00     228    0.07
 2004 203   286   0.066    0.00     227    0.08
 2004 204   287   0.065    0.00     226    0.08
 2004 205   288   0.065    0.00     224    0.07
 2004 206   289   0.065    0.00     223    0.07
 2004 207   290   0.064    0.00     222    0.06
 2004 208   291   0.064    0.00     221    0.06
 2004 209   292   0.064    0.00     221    0.08
 2004 210   293   0.064    0.00     220    0.08
 2004 211   294   0.063    0.00     219    0.07
 2004 212   295   0.063    0.00     217    0.08
 2004 213   296   0.063    0.00     216    0.08
 2004 214   297   0.062    0.00     215    0.07
 2004 215   298   0.062    0.00     214    0.08
 2004 216   299   0.062    0.00     213    0.07
 2004 217   300   0.062    0.00     212    0.07
 2004 218   301   0.061    0.00     211    0.07
 2004 219   302   0.061    0.00     210    0.07
 2004 220   303   0.061    0.00     209    0.07
 2004 221   304   0.060    0.00     208    0.07
 2004 222   305   0.060    0.00     207    0.07
 2004 223   306   0.060    0.00     206    0.07
 2004 224   307   0.059    0.00     204    0.07
 2004 225   308   0.059    0.00     203    0.07
 2004 226   309   0.059    0.00     202    0.07
 2004 227   310   0.059    0.00     202    0.07
 2004 228   311   0.058    0.00     201    0.07
 2004 229   312   0.058    0.00     200    0.07
 2004 230   313   0.058    0.00     199    0.06
 2004 231   314   0.058    0.00     198    0.06
 2004 232   315   0.058    0.00     198    0.07
 2004 233   316   0.057    0.00     197    0.07
 2004 234   317   0.057    0.00     196    0.06
 2004 235   318   0.057    0.00     195    0.07
 2004 236   319   0.057    0.00     194    0.07
 2004 237   320   0.057    0.00     194    0.06
 2004 238   321   0.056    0.00     193    0.07
 2004 239   322   0.056    0.00     192    0.07
 2004 240   323   0.056    0.00     191    0.06
 2004 241   324   0.056    0.00     190    0.07
 2004 242   325   0.055    0.00     190    0.07
 2004 243   326   0.055    0.00     189    0.06
 2004 244   327   0.055    0.00     188    0.07
 2004 245   328   0.054    0.00     187    0.06
 2004 246   329   0.054    0.00     186    0.07
 2004 247   330   0.054    0.00     185    0.06
 2004 248   331   0.054    0.00     185    0.06
 2004 249   332   0.054    0.00     184    0.06
 2004 250   333   0.053    0.00     183    0.06
 2004 251   334   0.053    0.00     182    0.06
 2004 252   335   0.053    0.00     181    0.06
 2004 253   336   0.053    0.00     181    0.06
 2004 254   337   0.053    0.00     180    0.06
 2004 255   338   0.052    0.00     179    0.06
 2004 256   339   0.052    0.00     179    0.06
 2004 257   340   0.052    0.00     178    0.06
 2004 258   341   0.052    0.00     178    0.06
 2004 259   342   0.052    0.00     177    0.06
 2004 260   343   0.052    0.00     177    0.06
 2004 261   344   0.051    0.00     176    0.06
 2004 262   345   0.051    0.00     175    0.05
 2004 263   346   0.051    0.00     175    0.06
 2004 264   347   0.051    0.00     174    0.06
 2004 265   348   0.051    0.00     173    0.06
 2004 266   349   0.050    0.00     172    0.06
 2004 267   350   0.050    0.00     171    0.06
 2004 268   351   0.050    0.00     171    0.06
 2004 269   352   0.050    0.00     170    0.06
 2004 270   353   0.049    0.00     169    0.06
 2004 271   354   0.049    0.00     168    0.06
 2004 272   355   0.049    0.00     168    0.06
 2004 273   356   0.049    0.00     167    0.06
 2004 274   357   0.049    0.00     166    0.06
 2004 275   358   0.048    0.00     165    0.05
 2004 276   359   0.048    0.00     164    0.05
 2004 277   360   0.048    0.00     163    0.05
 2004 278   361   0.048    0.00     163    0.06
 2004 279   362   0.047    0.00     162    0.05
 2004 280   363   0.047    0.00     161    0.05
 2004 281   364   0.047    0.00     161    0.05
 2004 282   365   0.047    0.00     160    0.05
 2004 283   366   0.047    0.00     160    0.05
 2004 284   367   0.047    0.00     159    0.04
 2004 285   368   0.047    0.00     159    0.06
 2004 286   369   0.046    0.00     158    0.05
 2004 287   370   0.046    0.00     157    0.05
 2004 288   371   0.046    0.00     157    0.05
 2004 289   372   0.046    0.00     156    0.05
 2004 290   373   0.046    0.00     155    0.05
 2004 291   374   0.045    0.00     155    0.04
 2004 292   375   0.045    0.00     154    0.04
 2004 293   376   0.045    0.00     154    0.04
 2004 294   377   0.045    0.00     154    0.04

*DSSAT Cropping System Model Ver. 4.5.1.023 -Stub         OCT 13, 2014; 10:39:37
                                                                                
*RUN   2        : N0 P60                    MZCER045 GHWA0401    2              
 MODEL          : MZCER045 - Maize                                              
 EXPERIMENT     : GHWA0401 MZ                                                   
 DATA PATH      :                                                               
 TREATMENT  2   : N0 P60                    MZCER045                            
  
@YEAR DOY   DAS    MCFD   MDEPD    MWAD    MWTD
 2003 282     0   0.536    0.35    2561    0.45
 2003 283     1   0.525    0.33    2481    0.24
 2003 284     2   0.515    0.31    2413    0.55
 2003 285     3   0.506    0.30    2350    0.71
 2003 286     4   0.496    0.28    2282    0.56
 2003 287     5   0.485    0.27    2213    0.87
 2003 288     6   0.476    0.26    2154    0.65
 2003 289     7   0.468    0.24    2103    0.85
 2003 290     8   0.461    0.23    2057    0.66
 2003 291     9   0.454    0.23    2015    0.54
 2003 292    10   0.446    0.22    1969    0.33
 2003 293    11   0.439    0.21    1927    0.21
 2003 294    12   0.433    0.20    1893    0.13
 2003 295    13   0.428    0.20    1865    0.08
 2003 296    14   0.424    0.19    1840    0.67
 2003 297    15   0.417    0.18    1798    0.43
 2003 298    16   0.409    0.18    1752    0.28
 2003 299    17   0.402    0.17    1711    0.18
 2003 300    18   0.395    0.16    1677    0.12
 2003 301    19   0.390    0.16    1649    0.08
 2003 302    20   0.386    0.15    1625    0.05
 2003 303    21   0.382    0.15    1605    0.58
 2003 304    22   0.376    0.14    1573    0.39
 2003 305    23   0.370    0.14    1542    0.27
 2003 306    24   0.365    0.13    1514    0.18
 2003 307    25   0.361    0.13    1491    0.13
 2003 308    26   0.357    0.13    1471    0.09
 2003 309    27   0.354    0.12    1454    0.06
 2003 310    28   0.351    0.12    1440    0.52
 2003 311    29   0.347    0.12    1418    0.37
 2003 312    30   0.342    0.11    1394    0.43
 2003 313    31   0.337    0.11    1369    0.31
 2003 314    32   0.332    0.11    1345    0.22
 2003 315    33   0.328    0.10    1325    0.16
 2003 316    34   0.325    0.10    1308    0.11
 2003 317    35   0.322    0.10    1294    0.08
 2003 318    36   0.319    0.10    1281    0.06
 2003 319    37   0.317    0.10    1269    0.04
 2003 320    38   0.315    0.09    1260    0.03
 2003 321    39   0.313    0.09    1252    0.02
 2003 322    40   0.312    0.09    1245    0.02
 2003 323    41   0.310    0.09    1239    0.01
 2003 324    42   0.310    0.09    1235    0.01
 2003 325    43   0.309    0.09    1231    0.01
 2003 326    44   0.308    0.09    1229    0.01
 2003 327    45   0.308    0.09    1227    0.00
 2003 328    46   0.308    0.09    1226    0.00
 2003 329    47   0.308    0.09    1226    0.00
 2003 330    48   0.307    0.09    1225    0.00
 2003 331    49   0.307    0.09    1224    0.00
 2003 332    50   0.307    0.09    1223    0.00
 2003 333    51   0.307    0.09    1222    0.00
 2003 334    52   0.307    0.09    1222    0.00
 2003 335    53   0.307    0.09    1221    0.00
 2003 336    54   0.307    0.09    1220    0.00
 2003 337    55   0.306    0.09    1219    0.40
 2003 338    56   0.306    0.09    1219    0.29
 2003 339    57   0.306    0.09    1218    0.22
 2003 340    58   0.306    0.09    1217    0.16
 2003 341    59   0.306    0.09    1216    0.12
 2003 342    60   0.306    0.09    1216    0.09
 2003 343    61   0.305    0.09    1215    0.07
 2003 344    62   0.305    0.09    1214    0.05
 2003 345    63   0.305    0.09    1213    0.04
 2003 346    64   0.305    0.09    1212    0.03
 2003 347    65   0.305    0.09    1212    0.02
 2003 348    66   0.305    0.09    1211    0.01
 2003 349    67   0.304    0.09    1210    0.01
 2003 350    68   0.304    0.09    1209    0.01
 2003 351    69   0.304    0.09    1209    0.01
 2003 352    70   0.304    0.09    1208    0.00
 2003 353    71   0.304    0.09    1207    0.00
 2003 354    72   0.304    0.09    1206    0.00
 2003 355    73   0.304    0.09    1206    0.00
 2003 356    74   0.303    0.09    1205    0.00
 2003 357    75   0.303    0.09    1204    0.00
 2003 358    76   0.303    0.09    1204    0.00
 2003 359    77   0.303    0.09    1203    0.00
 2003 360    78   0.303    0.09    1202    0.00
 2003 361    79   0.303    0.09    1201    0.00
 2003 362    80   0.302    0.09    1201    0.00
 2003 363    81   0.302    0.09    1200    0.00
 2003 364    82   0.302    0.09    1199    0.00
 2003 365    83   0.302    0.09    1199    0.00
 2004 001    84   0.302    0.09    1198    0.00
 2004 002    85   0.302    0.09    1197    0.00
 2004 003    86   0.302    0.09    1197    0.00
 2004 004    87   0.301    0.09    1196    0.00
 2004 005    88   0.301    0.09    1195    0.00
 2004 006    89   0.301    0.09    1195    0.00
 2004 007    90   0.301    0.09    1194    0.00
 2004 008    91   0.301    0.09    1193    0.00
 2004 009    92   0.301    0.09    1192    0.00
 2004 010    93   0.301    0.09    1192    0.00
 2004 011    94   0.300    0.08    1191    0.00
 2004 012    95   0.300    0.08    1190    0.00
 2004 013    96   0.300    0.08    1189    0.00
 2004 014    97   0.300    0.08    1189    0.00
 2004 015    98   0.300    0.08    1188    0.00
 2004 016    99   0.300    0.08    1187    0.00
 2004 017   100   0.299    0.08    1186    0.00
 2004 018   101   0.299    0.08    1186    0.00
 2004 019   102   0.299    0.08    1185    0.00
 2004 020   103   0.299    0.08    1184    0.41
 2004 021   104   0.297    0.08    1173    0.31
 2004 022   105   0.292    0.08    1153    0.23
 2004 023   106   0.288    0.08    1134    0.17
 2004 024   107   0.285    0.08    1118    0.13
 2004 025   108   0.282    0.07    1105    0.10
 2004 026   109   0.280    0.07    1095    0.08
 2004 027   110   0.278    0.07    1085    0.06
 2004 028   111   0.276    0.07    1077    0.04
 2004 029   112   0.274    0.07    1069    0.03
 2004 030   113   0.273    0.07    1063    0.03
 2004 031   114   0.272    0.07    1057    0.02
 2004 032   115   0.271    0.07    1053    0.02
 2004 033   116   0.270    0.07    1049    0.01
 2004 034   117   0.269    0.07    1046    0.01
 2004 035   118   0.269    0.07    1044    0.01
 2004 036   119   0.269    0.07    1043    0.01
 2004 037   120   0.268    0.07    1042    0.00
 2004 038   121   0.268    0.07    1041    0.00
 2004 039   122   0.268    0.07    1041    0.00
 2004 040   123   0.268    0.07    1040    0.00
 2004 041   124   0.268    0.07    1040    0.00
 2004 042   125   0.268    0.07    1039    0.00
 2004 043   126   0.268    0.07    1039    0.00
 2004 044   127   0.268    0.07    1038    0.00
 2004 045   128   0.268    0.07    1038    0.00
 2004 046   129   0.267    0.07    1037    0.00
 2004 047   130   0.267    0.07    1037    0.00
 2004 048   131   0.267    0.07    1036    0.00
 2004 049   132   0.267    0.07    1035    0.00
 2004 050   133   0.267    0.07    1035    0.00
 2004 051   134   0.267    0.07    1034    0.00
 2004 052   135   0.267    0.06    1034    0.00
 2004 053   136   0.266    0.06    1033    0.00
 2004 054   137   0.266    0.06    1032    0.00
 2004 055   138   0.266    0.06    1032    0.00
 2004 056   139   0.266    0.06    1031    0.00
 2004 057   140   0.266    0.06    1030    0.00
 2004 058   141   0.266    0.06    1030    0.00
 2004 059   142   0.266    0.06    1029    0.36
 2004 060   143   0.264    0.06    1020    0.28
 2004 061   144   0.260    0.06    1003    0.38
 2004 062   145   0.256    0.06     985    0.33
 2004 063   146   0.252    0.06     970    0.26
 2004 064   147   0.249    0.06     956    0.20
 2004 065   148   0.247    0.05     945    0.16
 2004 066   149   0.245    0.05     936    0.13
 2004 067   150   0.243    0.05     929    0.10
 2004 068   151   0.242    0.05     924    0.08
 2004 069   152   0.241    0.05     919    0.06
 2004 070   153   0.240    0.05     914    0.05
 2004 071   154   0.239    0.05     910    0.04
 2004 072   155   0.238    0.05     906    0.03
 2004 073   156   0.237    0.05     903    0.03
 2004 074   157   0.237    0.05     901    0.02
 2004 075   158   0.236    0.05     899    0.02
 2004 076   159   0.236    0.05     898    0.01
 2004 077   160   0.236    0.05     897    0.01
 2004 078   161   0.236    0.05     896    0.01
 2004 079   162   0.236    0.05     896    0.01
 2004 080   163   0.236    0.05     895    0.01
 2004 081   164   0.235    0.05     895    0.00
 2004 082   165   0.235    0.05     894    0.00
 2004 083   166   0.235    0.05     894    0.00
 2004 084   167   0.235    0.05     893    0.00
 2004 085   168   0.235    0.05     893    0.00
 2004 086   169   0.235    0.05     892    0.00
 2004 087   170   0.235    0.05     892    0.00
 2004 088   171   0.235    0.05     891    0.00
 2004 089   172   0.235    0.05     891    0.31
 2004 090   173   0.233    0.05     884    0.25
 2004 091   174   0.230    0.05     870    0.20
 2004 092   175   0.227    0.05     857    0.16
 2004 093   176   0.224    0.04     845    0.13
 2004 094   177   0.222    0.04     836    0.11
 2004 095   178   0.220    0.04     828    0.09
 2004 096   179   0.218    0.04     821    0.07
 2004 097   180   0.217    0.04     815    0.06
 2004 098   181   0.216    0.04     809    0.05
 2004 099   182   0.214    0.04     804    0.29
 2004 100   183   0.213    0.04     798    0.23
 2004 101   184   0.210    0.04     788    0.29
 2004 102   185   0.208    0.04     778    0.24
 2004 103   186   0.206    0.04     769    0.20
 2004 104   187   0.204    0.04     761    0.16
 2004 105   188   0.202    0.04     753    0.27
 2004 106   189   0.200    0.03     745    0.23
 2004 107   190   0.198    0.03     737    0.19
 2004 108   191   0.196    0.03     728    0.16
 2004 109   192   0.194    0.03     721    0.13
 2004 110   193   0.193    0.03     715    0.11
 2004 111   194   0.192    0.03     710    0.25
 2004 112   195   0.190    0.03     704    0.21
 2004 113   196   0.189    0.03     697    0.25
 2004 114   197   0.187    0.03     689    0.21
 2004 115   198   0.185    0.03     682    0.25
 2004 116   199   0.183    0.03     674    0.21
 2004 117   200   0.181    0.03     668    0.24
 2004 118   201   0.180    0.03     661    0.21
 2004 119   202   0.178    0.03     655    0.17
 2004 120   203   0.177    0.03     650    0.23
 2004 121   204   0.176    0.03     645    0.20
 2004 122   205   0.174    0.03     639    0.17
 2004 123   206   0.173    0.03     633    0.14
 2004 124   207   0.172    0.02     628    0.12
 2004 125   208   0.171    0.02     624    0.22
 2004 126   209   0.169    0.02     619    0.20
 2004 127   210   0.168    0.02     613    0.17
 2004 128   211   0.166    0.02     607    0.15
 2004 129   212   0.165    0.02     602    0.13
 2004 130   213   0.164    0.02     598    0.11
 2004 131   214   0.163    0.02     595    0.09
 2004 132   215   0.163    0.02     592    0.21
 2004 133   216   0.162    0.02     588    0.18
 2004 134   217   0.160    0.02     583    0.16
 2004 135   218   0.159    0.02     577    0.21
 2004 136   219   0.158    0.02     573    0.20
 2004 137   220   0.157    0.02     568    0.17
 2004 138   221   0.155    0.02     563    0.15
 2004 139   222   0.154    0.02     559    0.13
 2004 140   223   0.154    0.02     556    0.20
 2004 141   224   0.153    0.02     552    0.17
 2004 142   225   0.152    0.02     548    0.15
 2004 143   226   0.150    0.02     544    0.13
 2004 144   227   0.150    0.02     540    0.19
 2004 145   228   0.149    0.02     536    0.17
 2004 146   229   0.148    0.02     532    0.15
 2004 147   230   0.146    0.02     528    0.19
 2004 148   231   0.146    0.02     524    0.17
 2004 149   232   0.145    0.02     521    0.19
 2004 150   233   0.144    0.02     517    0.18
 2004 151   234   0.143    0.02     513    0.16
 2004 152   235   0.142    0.02     510    0.14
 2004 153   236   0.141    0.02     506    0.18
 2004 154   237   0.140    0.02     503    0.17
 2004 155   238   0.139    0.02     499    0.15
 2004 156   239   0.138    0.02     496    0.13
 2004 157   240   0.137    0.02     493    0.12
 2004 158   241   0.137    0.01     490    0.10
 2004 159   242   0.136    0.01     487    0.13
 2004 160   243   0.135    0.01     485    0.12
 2004 161   244   0.135    0.01     483    0.10
 2004 162   245   0.134    0.01     481    0.09
 2004 163   246   0.134    0.01     479    0.17
 2004 164   247   0.133    0.01     477    0.16
 2004 165   248   0.132    0.01     474    0.17
 2004 166   249   0.132    0.01     470    0.16
 2004 167   250   0.131    0.01     467    0.17
 2004 168   251   0.130    0.01     464    0.15
 2004 169   252   0.129    0.01     461    0.16
 2004 170   253   0.128    0.01     458    0.15
 2004 171   254   0.128    0.01     455    0.13
 2004 172   255   0.127    0.01     453    0.16
 2004 173   256   0.126    0.01     450    0.16
 2004 174   257   0.126    0.01     447    0.14
 2004 175   258   0.125    0.01     444    0.12
 2004 176   259   0.124    0.01     442    0.11
 2004 177   260   0.124    0.01     440    0.10
 2004 178   261   0.123    0.01     438    0.16
 2004 179   262   0.123    0.01     436    0.15
 2004 180   263   0.122    0.01     433    0.13
 2004 181   264   0.121    0.01     430    0.12
 2004 182   265   0.120    0.01     428    0.15
 2004 183   266   0.120    0.01     425    0.14
 2004 184   267   0.119    0.01     423    0.12
 2004 185   268   0.118    0.01     420    0.15
 2004 186   269   0.118    0.01     418    0.14
 2004 187   270   0.117    0.01     416    0.15
 2004 188   271   0.117    0.01     414    0.15
 2004 189   272   0.116    0.01     412    0.15
 2004 190   273   0.116    0.01     409    0.14
 2004 191   274   0.115    0.01     407    0.14
 2004 192   275   0.114    0.01     405    0.14
 2004 193   276   0.114    0.01     402    0.14
 2004 194   277   0.113    0.01     400    0.13
 2004 195   278   0.113    0.01     398    0.14
 2004 196   279   0.112    0.01     396    0.13
 2004 197   280   0.111    0.01     394    0.12
 2004 198   281   0.111    0.01     392    0.10
 2004 199   282   0.110    0.01     390    0.14
 2004 200   283   0.110    0.01     388    0.13
 2004 201   284   0.109    0.01     386    0.11
 2004 202   285   0.109    0.01     384    0.10
 2004 203   286   0.108    0.01     383    0.14
 2004 204   287   0.108    0.01     381    0.12
 2004 205   288   0.107    0.01     379    0.11
 2004 206   289   0.107    0.01     377    0.10
 2004 207   290   0.106    0.01     375    0.09
 2004 208   291   0.106    0.01     374    0.08
 2004 209   292   0.106    0.01     373    0.13
 2004 210   293   0.105    0.01     371    0.13
 2004 211   294   0.105    0.01     369    0.11
 2004 212   295   0.104    0.01     367    0.13
 2004 213   296   0.104    0.01     365    0.13
 2004 214   297   0.103    0.01     363    0.12
 2004 215   298   0.103    0.01     362    0.13
 2004 216   299   0.102    0.01     360    0.13
 2004 217   300   0.102    0.01     358    0.13
 2004 218   301   0.101    0.01     356    0.13
 2004 219   302   0.101    0.01     355    0.12
 2004 220   303   0.100    0.01     353    0.12
 2004 221   304   0.100    0.01     351    0.12
 2004 222   305   0.099    0.01     349    0.11
 2004 223   306   0.099    0.01     347    0.10
 2004 224   307   0.098    0.01     346    0.12
 2004 225   308   0.098    0.01     344    0.11
 2004 226   309   0.098    0.01     342    0.12
 2004 227   310   0.097    0.01     340    0.11
 2004 228   311   0.097    0.01     339    0.12
 2004 229   312   0.096    0.01     338    0.11
 2004 230   313   0.096    0.01     336    0.10
 2004 231   314   0.095    0.01     334    0.09
 2004 232   315   0.095    0.01     333    0.12
 2004 233   316   0.095    0.01     331    0.11
 2004 234   317   0.094    0.01     330    0.10
 2004 235   318   0.094    0.01     328    0.12
 2004 236   319   0.094    0.01     327    0.11
 2004 237   320   0.093    0.01     326    0.10
 2004 238   321   0.093    0.01     324    0.11
 2004 239   322   0.092    0.01     323    0.11
 2004 240   323   0.092    0.01     322    0.10
 2004 241   324   0.092    0.01     320    0.11
 2004 242   325   0.091    0.01     318    0.11
 2004 243   326   0.091    0.01     317    0.10
 2004 244   327   0.090    0.01     315    0.11
 2004 245   328   0.090    0.01     314    0.10
 2004 246   329   0.089    0.01     312    0.11
 2004 247   330   0.089    0.01     311    0.11
 2004 248   331   0.089    0.01     309    0.11
 2004 249   332   0.088    0.01     308    0.10
 2004 250   333   0.088    0.01     306    0.11
 2004 251   334   0.087    0.01     305    0.11
 2004 252   335   0.087    0.01     303    0.10
 2004 253   336   0.087    0.01     302    0.09
 2004 254   337   0.086    0.01     301    0.08
 2004 255   338   0.086    0.01     300    0.11
 2004 256   339   0.086    0.01     298    0.10
 2004 257   340   0.085    0.01     297    0.10
 2004 258   341   0.085    0.01     296    0.10
 2004 259   342   0.085    0.01     295    0.10
 2004 260   343   0.084    0.01     293    0.10
 2004 261   344   0.084    0.01     292    0.09
 2004 262   345   0.084    0.01     291    0.08
 2004 263   346   0.083    0.01     290    0.10
 2004 264   347   0.083    0.01     289    0.10
 2004 265   348   0.083    0.01     287    0.10
 2004 266   349   0.082    0.01     286    0.09
 2004 267   350   0.082    0.01     285    0.10
 2004 268   351   0.081    0.01     283    0.09
 2004 269   352   0.081    0.01     282    0.09
 2004 270   353   0.081    0.01     281    0.10
 2004 271   354   0.080    0.01     280    0.10
 2004 272   355   0.080    0.00     278    0.09
 2004 273   356   0.080    0.00     277    0.10
 2004 274   357   0.079    0.00     275    0.09
 2004 275   358   0.079    0.00     274    0.09
 2004 276   359   0.078    0.00     272    0.08
 2004 277   360   0.078    0.00     271    0.07
 2004 278   361   0.078    0.00     270    0.10
 2004 279   362   0.078    0.00     269    0.09
 2004 280   363   0.077    0.00     268    0.08
 2004 281   364   0.077    0.00     267    0.08
 2004 282   365   0.077    0.00     266    0.07
 2004 283   366   0.076    0.00     265    0.07
 2004 284   367   0.076    0.00     264    0.06
 2004 285   368   0.076    0.00     264    0.09
 2004 286   369   0.076    0.00     263    0.09
 2004 287   370   0.075    0.00     261    0.08
 2004 288   371   0.075    0.00     260    0.08
 2004 289   372   0.075    0.00     259    0.07
 2004 290   373   0.074    0.00     258    0.07
 2004 291   374   0.074    0.00     257    0.06
 2004 292   375   0.074    0.00     256    0.06
 2004 293   376   0.074    0.00     256    0.05
 2004 294   377   0.074    0.00     255    0.05

*DSSAT Cropping System Model Ver. 4.5.1.023 -Stub         OCT 13, 2014; 10:39:37
                                                                                
*RUN   3        : N0 P90                    MZCER045 GHWA0401    3              
 MODEL          : MZCER045 - Maize                                              
 EXPERIMENT     : GHWA0401 MZ                                                   
 DATA PATH      :                                                               
 TREATMENT  3   : N0 P90                    MZCER045                            
  
@YEAR DOY   DAS    MCFD   MDEPD    MWAD    MWTD
 2003 282     0   0.536    0.35    2561    0.45
 2003 283     1   0.525    0.33    2481    0.24
 2003 284     2   0.515    0.31    2413    0.55
 2003 285     3   0.506    0.30    2350    0.71
 2003 286     4   0.496    0.28    2282    0.56
 2003 287     5   0.485    0.27    2213    0.87
 2003 288     6   0.476    0.26    2154    0.65
 2003 289     7   0.468    0.24    2103    0.85
 2003 290     8   0.461    0.23    2057    0.66
 2003 291     9   0.454    0.23    2015    0.54
 2003 292    10   0.446    0.22    1969    0.33
 2003 293    11   0.439    0.21    1927    0.21
 2003 294    12   0.433    0.20    1893    0.13
 2003 295    13   0.428    0.20    1865    0.08
 2003 296    14   0.424    0.19    1840    0.67
 2003 297    15   0.417    0.18    1798    0.43
 2003 298    16   0.409    0.18    1752    0.28
 2003 299    17   0.402    0.17    1711    0.18
 2003 300    18   0.395    0.16    1677    0.12
 2003 301    19   0.390    0.16    1649    0.08
 2003 302    20   0.386    0.15    1625    0.05
 2003 303    21   0.382    0.15    1605    0.58
 2003 304    22   0.376    0.14    1573    0.39
 2003 305    23   0.370    0.14    1542    0.27
 2003 306    24   0.365    0.13    1514    0.18
 2003 307    25   0.361    0.13    1491    0.13
 2003 308    26   0.357    0.13    1471    0.09
 2003 309    27   0.354    0.12    1454    0.06
 2003 310    28   0.351    0.12    1440    0.52
 2003 311    29   0.347    0.12    1418    0.37
 2003 312    30   0.342    0.11    1394    0.43
 2003 313    31   0.337    0.11    1369    0.31
 2003 314    32   0.332    0.11    1345    0.22
 2003 315    33   0.328    0.10    1325    0.16
 2003 316    34   0.325    0.10    1308    0.11
 2003 317    35   0.322    0.10    1294    0.08
 2003 318    36   0.319    0.10    1281    0.06
 2003 319    37   0.317    0.10    1269    0.04
 2003 320    38   0.315    0.09    1260    0.03
 2003 321    39   0.313    0.09    1252    0.02
 2003 322    40   0.312    0.09    1245    0.02
 2003 323    41   0.310    0.09    1239    0.01
 2003 324    42   0.310    0.09    1235    0.01
 2003 325    43   0.309    0.09    1231    0.01
 2003 326    44   0.308    0.09    1229    0.01
 2003 327    45   0.308    0.09    1227    0.00
 2003 328    46   0.308    0.09    1226    0.00
 2003 329    47   0.308    0.09    1226    0.00
 2003 330    48   0.307    0.09    1225    0.00
 2003 331    49   0.307    0.09    1224    0.00
 2003 332    50   0.307    0.09    1223    0.00
 2003 333    51   0.307    0.09    1222    0.00
 2003 334    52   0.307    0.09    1222    0.00
 2003 335    53   0.307    0.09    1221    0.00
 2003 336    54   0.307    0.09    1220    0.00
 2003 337    55   0.306    0.09    1219    0.40
 2003 338    56   0.306    0.09    1219    0.29
 2003 339    57   0.306    0.09    1218    0.22
 2003 340    58   0.306    0.09    1217    0.16
 2003 341    59   0.306    0.09    1216    0.12
 2003 342    60   0.306    0.09    1216    0.09
 2003 343    61   0.305    0.09    1215    0.07
 2003 344    62   0.305    0.09    1214    0.05
 2003 345    63   0.305    0.09    1213    0.04
 2003 346    64   0.305    0.09    1212    0.03
 2003 347    65   0.305    0.09    1212    0.02
 2003 348    66   0.305    0.09    1211    0.01
 2003 349    67   0.304    0.09    1210    0.01
 2003 350    68   0.304    0.09    1209    0.01
 2003 351    69   0.304    0.09    1209    0.01
 2003 352    70   0.304    0.09    1208    0.00
 2003 353    71   0.304    0.09    1207    0.00
 2003 354    72   0.304    0.09    1206    0.00
 2003 355    73   0.304    0.09    1206    0.00
 2003 356    74   0.303    0.09    1205    0.00
 2003 357    75   0.303    0.09    1204    0.00
 2003 358    76   0.303    0.09    1204    0.00
 2003 359    77   0.303    0.09    1203    0.00
 2003 360    78   0.303    0.09    1202    0.00
 2003 361    79   0.303    0.09    1201    0.00
 2003 362    80   0.302    0.09    1201    0.00
 2003 363    81   0.302    0.09    1200    0.00
 2003 364    82   0.302    0.09    1199    0.00
 2003 365    83   0.302    0.09    1199    0.00
 2004 001    84   0.302    0.09    1198    0.00
 2004 002    85   0.302    0.09    1197    0.00
 2004 003    86   0.302    0.09    1197    0.00
 2004 004    87   0.301    0.09    1196    0.00
 2004 005    88   0.301    0.09    1195    0.00
 2004 006    89   0.301    0.09    1195    0.00
 2004 007    90   0.301    0.09    1194    0.00
 2004 008    91   0.301    0.09    1193    0.00
 2004 009    92   0.301    0.09    1192    0.00
 2004 010    93   0.301    0.09    1192    0.00
 2004 011    94   0.300    0.08    1191    0.00
 2004 012    95   0.300    0.08    1190    0.00
 2004 013    96   0.300    0.08    1189    0.00
 2004 014    97   0.300    0.08    1189    0.00
 2004 015    98   0.300    0.08    1188    0.00
 2004 016    99   0.300    0.08    1187    0.00
 2004 017   100   0.299    0.08    1186    0.00
 2004 018   101   0.299    0.08    1186    0.00
 2004 019   102   0.299    0.08    1185    0.00
 2004 020   103   0.299    0.08    1184    0.41
 2004 021   104   0.297    0.08    1173    0.31
 2004 022   105   0.292    0.08    1153    0.23
 2004 023   106   0.288    0.08    1134    0.17
 2004 024   107   0.285    0.08    1118    0.13
 2004 025   108   0.282    0.07    1105    0.10
 2004 026   109   0.280    0.07    1095    0.08
 2004 027   110   0.278    0.07    1085    0.06
 2004 028   111   0.276    0.07    1077    0.04
 2004 029   112   0.274    0.07    1069    0.03
 2004 030   113   0.273    0.07    1063    0.03
 2004 031   114   0.272    0.07    1057    0.02
 2004 032   115   0.271    0.07    1053    0.02
 2004 033   116   0.270    0.07    1049    0.01
 2004 034   117   0.269    0.07    1046    0.01
 2004 035   118   0.269    0.07    1044    0.01
 2004 036   119   0.269    0.07    1043    0.01
 2004 037   120   0.268    0.07    1042    0.00
 2004 038   121   0.268    0.07    1041    0.00
 2004 039   122   0.268    0.07    1041    0.00
 2004 040   123   0.268    0.07    1040    0.00
 2004 041   124   0.268    0.07    1040    0.00
 2004 042   125   0.268    0.07    1039    0.00
 2004 043   126   0.268    0.07    1039    0.00
 2004 044   127   0.268    0.07    1038    0.00
 2004 045   128   0.268    0.07    1038    0.00
 2004 046   129   0.267    0.07    1037    0.00
 2004 047   130   0.267    0.07    1037    0.00
 2004 048   131   0.267    0.07    1036    0.00
 2004 049   132   0.267    0.07    1035    0.00
 2004 050   133   0.267    0.07    1035    0.00
 2004 051   134   0.267    0.07    1034    0.00
 2004 052   135   0.267    0.06    1034    0.00
 2004 053   136   0.266    0.06    1033    0.00
 2004 054   137   0.266    0.06    1032    0.00
 2004 055   138   0.266    0.06    1032    0.00
 2004 056   139   0.266    0.06    1031    0.00
 2004 057   140   0.266    0.06    1030    0.00
 2004 058   141   0.266    0.06    1030    0.00
 2004 059   142   0.266    0.06    1029    0.36
 2004 060   143   0.264    0.06    1020    0.28
 2004 061   144   0.260    0.06    1003    0.38
 2004 062   145   0.256    0.06     985    0.33
 2004 063   146   0.252    0.06     970    0.26
 2004 064   147   0.249    0.06     956    0.20
 2004 065   148   0.247    0.05     945    0.16
 2004 066   149   0.245    0.05     936    0.13
 2004 067   150   0.243    0.05     929    0.10
 2004 068   151   0.242    0.05     924    0.08
 2004 069   152   0.241    0.05     919    0.06
 2004 070   153   0.240    0.05     914    0.05
 2004 071   154   0.239    0.05     910    0.04
 2004 072   155   0.238    0.05     906    0.03
 2004 073   156   0.237    0.05     903    0.03
 2004 074   157   0.237    0.05     901    0.02
 2004 075   158   0.236    0.05     899    0.02
 2004 076   159   0.236    0.05     898    0.01
 2004 077   160   0.236    0.05     897    0.01
 2004 078   161   0.236    0.05     896    0.01
 2004 079   162   0.236    0.05     896    0.01
 2004 080   163   0.236    0.05     895    0.01
 2004 081   164   0.235    0.05     895    0.00
 2004 082   165   0.235    0.05     894    0.00
 2004 083   166   0.235    0.05     894    0.00
 2004 084   167   0.235    0.05     893    0.00
 2004 085   168   0.235    0.05     893    0.00
 2004 086   169   0.235    0.05     892    0.00
 2004 087   170   0.235    0.05     892    0.00
 2004 088   171   0.235    0.05     891    0.00
 2004 089   172   0.235    0.05     891    0.31
 2004 090   173   0.233    0.05     884    0.25
 2004 091   174   0.230    0.05     870    0.20
 2004 092   175   0.227    0.05     857    0.16
 2004 093   176   0.224    0.04     845    0.13
 2004 094   177   0.222    0.04     836    0.11
 2004 095   178   0.220    0.04     828    0.09
 2004 096   179   0.218    0.04     821    0.07
 2004 097   180   0.217    0.04     815    0.06
 2004 098   181   0.216    0.04     809    0.05
 2004 099   182   0.214    0.04     804    0.29
 2004 100   183   0.213    0.04     798    0.23
 2004 101   184   0.210    0.04     788    0.29
 2004 102   185   0.208    0.04     778    0.24
 2004 103   186   0.206    0.04     769    0.20
 2004 104   187   0.204    0.04     761    0.16
 2004 105   188   0.202    0.04     753    0.27
 2004 106   189   0.200    0.03     745    0.23
 2004 107   190   0.198    0.03     737    0.19
 2004 108   191   0.196    0.03     728    0.16
 2004 109   192   0.194    0.03     721    0.13
 2004 110   193   0.193    0.03     715    0.11
 2004 111   194   0.192    0.03     710    0.25
 2004 112   195   0.190    0.03     704    0.21
 2004 113   196   0.189    0.03     697    0.25
 2004 114   197   0.187    0.03     689    0.21
 2004 115   198   0.185    0.03     682    0.25
 2004 116   199   0.183    0.03     674    0.21
 2004 117   200   0.181    0.03     668    0.24
 2004 118   201   0.180    0.03     661    0.21
 2004 119   202   0.178    0.03     655    0.17
 2004 120   203   0.177    0.03     650    0.23
 2004 121   204   0.176    0.03     645    0.20
 2004 122   205   0.174    0.03     639    0.17
 2004 123   206   0.173    0.03     633    0.14
 2004 124   207   0.172    0.02     628    0.12
 2004 125   208   0.171    0.02     624    0.22
 2004 126   209   0.169    0.02     619    0.20
 2004 127   210   0.168    0.02     613    0.17
 2004 128   211   0.166    0.02     607    0.15
 2004 129   212   0.165    0.02     602    0.13
 2004 130   213   0.164    0.02     598    0.11
 2004 131   214   0.163    0.02     595    0.09
 2004 132   215   0.163    0.02     592    0.21
 2004 133   216   0.162    0.02     588    0.18
 2004 134   217   0.160    0.02     583    0.16
 2004 135   218   0.159    0.02     577    0.21
 2004 136   219   0.158    0.02     573    0.20
 2004 137   220   0.157    0.02     568    0.17
 2004 138   221   0.155    0.02     563    0.15
 2004 139   222   0.154    0.02     559    0.13
 2004 140   223   0.154    0.02     556    0.20
 2004 141   224   0.153    0.02     552    0.17
 2004 142   225   0.152    0.02     548    0.15
 2004 143   226   0.150    0.02     544    0.13
 2004 144   227   0.150    0.02     540    0.19
 2004 145   228   0.149    0.02     536    0.17
 2004 146   229   0.148    0.02     532    0.15
 2004 147   230   0.146    0.02     528    0.19
 2004 148   231   0.146    0.02     524    0.17
 2004 149   232   0.145    0.02     521    0.19
 2004 150   233   0.144    0.02     517    0.18
 2004 151   234   0.143    0.02     513    0.16
 2004 152   235   0.142    0.02     510    0.14
 2004 153   236   0.141    0.02     506    0.18
 2004 154   237   0.140    0.02     503    0.17
 2004 155   238   0.139    0.02     499    0.15
 2004 156   239   0.138    0.02     496    0.13
 2004 157   240   0.137    0.02     493    0.12
 2004 158   241   0.137    0.01     490    0.10
 2004 159   242   0.136    0.01     487    0.13
 2004 160   243   0.135    0.01     485    0.12
 2004 161   244   0.135    0.01     483    0.10
 2004 162   245   0.134    0.01     481    0.09
 2004 163   246   0.134    0.01     479    0.17
 2004 164   247   0.133    0.01     477    0.16
 2004 165   248   0.132    0.01     474    0.17
 2004 166   249   0.132    0.01     470    0.16
 2004 167   250   0.131    0.01     467    0.17
 2004 168   251   0.130    0.01     464    0.15
 2004 169   252   0.129    0.01     461    0.16
 2004 170   253   0.128    0.01     458    0.15
 2004 171   254   0.128    0.01     455    0.13
 2004 172   255   0.127    0.01     453    0.16
 2004 173   256   0.126    0.01     450    0.16
 2004 174   257   0.126    0.01     447    0.14
 2004 175   258   0.125    0.01     444    0.12
 2004 176   259   0.124    0.01     442    0.11
 2004 177   260   0.124    0.01     440    0.10
 2004 178   261   0.123    0.01     438    0.16
 2004 179   262   0.123    0.01     436    0.15
 2004 180   263   0.122    0.01     433    0.13
 2004 181   264   0.121    0.01     430    0.12
 2004 182   265   0.120    0.01     428    0.15
 2004 183   266   0.120    0.01     425    0.14
 2004 184   267   0.119    0.01     423    0.12
 2004 185   268   0.118    0.01     420    0.15
 2004 186   269   0.118    0.01     418    0.14
 2004 187   270   0.117    0.01     416    0.15
 2004 188   271   0.117    0.01     414    0.15
 2004 189   272   0.116    0.01     412    0.15
 2004 190   273   0.116    0.01     409    0.14
 2004 191   274   0.115    0.01     407    0.14
 2004 192   275   0.114    0.01     405    0.14
 2004 193   276   0.114    0.01     402    0.14
 2004 194   277   0.113    0.01     400    0.13
 2004 195   278   0.113    0.01     398    0.14
 2004 196   279   0.112    0.01     396    0.13
 2004 197   280   0.111    0.01     394    0.12
 2004 198   281   0.111    0.01     392    0.10
 2004 199   282   0.110    0.01     390    0.14
 2004 200   283   0.110    0.01     388    0.13
 2004 201   284   0.109    0.01     386    0.11
 2004 202   285   0.109    0.01     384    0.10
 2004 203   286   0.108    0.01     383    0.14
 2004 204   287   0.108    0.01     381    0.12
 2004 205   288   0.107    0.01     379    0.11
 2004 206   289   0.107    0.01     377    0.10
 2004 207   290   0.106    0.01     375    0.09
 2004 208   291   0.106    0.01     374    0.08
 2004 209   292   0.106    0.01     373    0.13
 2004 210   293   0.105    0.01     371    0.13
 2004 211   294   0.105    0.01     369    0.11
 2004 212   295   0.104    0.01     367    0.13
 2004 213   296   0.104    0.01     365    0.13
 2004 214   297   0.103    0.01     363    0.12
 2004 215   298   0.103    0.01     362    0.13
 2004 216   299   0.102    0.01     360    0.13
 2004 217   300   0.102    0.01     358    0.13
 2004 218   301   0.101    0.01     356    0.13
 2004 219   302   0.101    0.01     355    0.12
 2004 220   303   0.100    0.01     353    0.12
 2004 221   304   0.100    0.01     351    0.12
 2004 222   305   0.099    0.01     349    0.11
 2004 223   306   0.099    0.01     347    0.10
 2004 224   307   0.098    0.01     346    0.12
 2004 225   308   0.098    0.01     344    0.11
 2004 226   309   0.098    0.01     342    0.12
 2004 227   310   0.097    0.01     340    0.11
 2004 228   311   0.097    0.01     339    0.12
 2004 229   312   0.096    0.01     338    0.11
 2004 230   313   0.096    0.01     336    0.10
 2004 231   314   0.095    0.01     334    0.09
 2004 232   315   0.095    0.01     333    0.12
 2004 233   316   0.095    0.01     331    0.11
 2004 234   317   0.094    0.01     330    0.10
 2004 235   318   0.094    0.01     328    0.12
 2004 236   319   0.094    0.01     327    0.11
 2004 237   320   0.093    0.01     326    0.10
 2004 238   321   0.093    0.01     324    0.11
 2004 239   322   0.092    0.01     323    0.11
 2004 240   323   0.092    0.01     322    0.10
 2004 241   324   0.092    0.01     320    0.11
 2004 242   325   0.091    0.01     318    0.11
 2004 243   326   0.091    0.01     317    0.10
 2004 244   327   0.090    0.01     315    0.11
 2004 245   328   0.090    0.01     314    0.10
 2004 246   329   0.089    0.01     312    0.11
 2004 247   330   0.089    0.01     311    0.11
 2004 248   331   0.089    0.01     309    0.11
 2004 249   332   0.088    0.01     308    0.10
 2004 250   333   0.088    0.01     306    0.11
 2004 251   334   0.087    0.01     305    0.11
 2004 252   335   0.087    0.01     303    0.10
 2004 253   336   0.087    0.01     302    0.09
 2004 254   337   0.086    0.01     301    0.08
 2004 255   338   0.086    0.01     300    0.11
 2004 256   339   0.086    0.01     298    0.10
 2004 257   340   0.085    0.01     297    0.10
 2004 258   341   0.085    0.01     296    0.10
 2004 259   342   0.085    0.01     295    0.10
 2004 260   343   0.084    0.01     293    0.10
 2004 261   344   0.084    0.01     292    0.09
 2004 262   345   0.084    0.01     291    0.08
 2004 263   346   0.083    0.01     290    0.10
 2004 264   347   0.083    0.01     289    0.10
 2004 265   348   0.083    0.01     287    0.10
 2004 266   349   0.082    0.01     286    0.09
 2004 267   350   0.082    0.01     285    0.10
 2004 268   351   0.081    0.01     283    0.09
 2004 269   352   0.081    0.01     282    0.09
 2004 270   353   0.081    0.01     281    0.10
 2004 271   354   0.080    0.01     280    0.10
 2004 272   355   0.080    0.00     278    0.09
 2004 273   356   0.080    0.00     277    0.10
 2004 274   357   0.079    0.00     275    0.09
 2004 275   358   0.079    0.00     274    0.09
 2004 276   359   0.078    0.00     272    0.08
 2004 277   360   0.078    0.00     271    0.07
 2004 278   361   0.078    0.00     270    0.10
 2004 279   362   0.078    0.00     269    0.09
 2004 280   363   0.077    0.00     268    0.08
 2004 281   364   0.077    0.00     267    0.08
 2004 282   365   0.077    0.00     266    0.07
 2004 283   366   0.076    0.00     265    0.07
 2004 284   367   0.076    0.00     264    0.06
 2004 285   368   0.076    0.00     264    0.09
 2004 286   369   0.076    0.00     263    0.09
 2004 287   370   0.075    0.00     261    0.08
 2004 288   371   0.075    0.00     260    0.08
 2004 289   372   0.075    0.00     259    0.07
 2004 290   373   0.074    0.00     258    0.07
 2004 291   374   0.074    0.00     257    0.06
 2004 292   375   0.074    0.00     256    0.06
 2004 293   376   0.074    0.00     256    0.05
 2004 294   377   0.074    0.00     255    0.05

*DSSAT Cropping System Model Ver. 4.5.1.023 -Stub         OCT 13, 2014; 10:39:37
                                                                                
*RUN   4        : N60 P0                    MZCER045 GHWA0401    4              
 MODEL          : MZCER045 - Maize                                              
 EXPERIMENT     : GHWA0401 MZ                                                   
 DATA PATH      :                                                               
 TREATMENT  4   : N60 P0                    MZCER045                            
  
@YEAR DOY   DAS    MCFD   MDEPD    MWAD    MWTD
 2003 282     0   0.479    0.26    2175    0.38
 2003 283     1   0.468    0.25    2107    0.23
 2003 284     2   0.459    0.23    2049    0.51
 2003 285     3   0.450    0.22    1995    0.61
 2003 286     4   0.441    0.21    1938    0.51
 2003 287     5   0.431    0.20    1879    0.72
 2003 288     6   0.422    0.19    1829    0.59
 2003 289     7   0.415    0.18    1786    0.69
 2003 290     8   0.408    0.17    1746    0.59
 2003 291     9   0.401    0.17    1711    0.51
 2003 292    10   0.394    0.16    1671    0.33
 2003 293    11   0.388    0.15    1636    0.22
 2003 294    12   0.383    0.15    1607    0.15
 2003 295    13   0.378    0.15    1583    0.10
 2003 296    14   0.374    0.14    1562    0.57
 2003 297    15   0.367    0.13    1527    0.40
 2003 298    16   0.360    0.13    1487    0.27
 2003 299    17   0.353    0.12    1453    0.19
 2003 300    18   0.348    0.12    1424    0.13
 2003 301    19   0.343    0.11    1400    0.09
 2003 302    20   0.339    0.11    1380    0.07
 2003 303    21   0.336    0.11    1363    0.49
 2003 304    22   0.330    0.11    1336    0.35
 2003 305    23   0.325    0.10    1309    0.25
 2003 306    24   0.320    0.10    1286    0.18
 2003 307    25   0.316    0.10    1266    0.13
 2003 308    26   0.312    0.09    1249    0.10
 2003 309    27   0.310    0.09    1235    0.07
 2003 310    28   0.307    0.09    1222    0.44
 2003 311    29   0.303    0.09    1204    0.33
 2003 312    30   0.299    0.08    1184    0.40
 2003 313    31   0.294    0.08    1162    0.30
 2003 314    32   0.290    0.08    1142    0.22
 2003 315    33   0.286    0.08    1125    0.17
 2003 316    34   0.283    0.07    1111    0.13
 2003 317    35   0.281    0.07    1099    0.10
 2003 318    36   0.279    0.07    1088    0.07
 2003 319    37   0.277    0.07    1079    0.06
 2003 320    38   0.275    0.07    1071    0.04
 2003 321    39   0.273    0.07    1064    0.03
 2003 322    40   0.272    0.07    1059    0.03
 2003 323    41   0.271    0.07    1054    0.02
 2003 324    42   0.270    0.07    1051    0.01
 2003 325    43   0.270    0.07    1048    0.01
 2003 326    44   0.269    0.07    1046    0.01
 2003 327    45   0.269    0.07    1045    0.01
 2003 328    46   0.269    0.07    1044    0.01
 2003 329    47   0.269    0.07    1043    0.00
 2003 330    48   0.269    0.07    1042    0.00
 2003 331    49   0.268    0.07    1042    0.00
 2003 332    50   0.268    0.07    1041    0.00
 2003 333    51   0.268    0.07    1040    0.00
 2003 334    52   0.268    0.07    1040    0.00
 2003 335    53   0.268    0.07    1039    0.00
 2003 336    54   0.268    0.07    1038    0.00
 2003 337    55   0.268    0.07    1038    0.35
 2003 338    56   0.267    0.07    1037    0.27
 2003 339    57   0.267    0.07    1036    0.21
 2003 340    58   0.267    0.07    1036    0.16
 2003 341    59   0.267    0.07    1035    0.12
 2003 342    60   0.267    0.07    1035    0.10
 2003 343    61   0.267    0.07    1034    0.07
 2003 344    62   0.267    0.06    1033    0.06
 2003 345    63   0.266    0.06    1033    0.04
 2003 346    64   0.266    0.06    1032    0.03
 2003 347    65   0.266    0.06    1031    0.03
 2003 348    66   0.266    0.06    1031    0.02
 2003 349    67   0.266    0.06    1030    0.02
 2003 350    68   0.266    0.06    1029    0.01
 2003 351    69   0.266    0.06    1029    0.01
 2003 352    70   0.265    0.06    1028    0.01
 2003 353    71   0.265    0.06    1027    0.01
 2003 354    72   0.265    0.06    1027    0.00
 2003 355    73   0.265    0.06    1026    0.00
 2003 356    74   0.265    0.06    1026    0.00
 2003 357    75   0.265    0.06    1025    0.00
 2003 358    76   0.265    0.06    1024    0.00
 2003 359    77   0.264    0.06    1024    0.00
 2003 360    78   0.264    0.06    1023    0.00
 2003 361    79   0.264    0.06    1023    0.00
 2003 362    80   0.264    0.06    1022    0.00
 2003 363    81   0.264    0.06    1021    0.00
 2003 364    82   0.264    0.06    1021    0.00
 2003 365    83   0.264    0.06    1020    0.00
 2004 001    84   0.264    0.06    1020    0.00
 2004 002    85   0.263    0.06    1019    0.00
 2004 003    86   0.263    0.06    1018    0.00
 2004 004    87   0.263    0.06    1018    0.00
 2004 005    88   0.263    0.06    1017    0.00
 2004 006    89   0.263    0.06    1017    0.00
 2004 007    90   0.263    0.06    1016    0.00
 2004 008    91   0.263    0.06    1015    0.00
 2004 009    92   0.262    0.06    1015    0.00
 2004 010    93   0.262    0.06    1014    0.00
 2004 011    94   0.262    0.06    1013    0.00
 2004 012    95   0.262    0.06    1013    0.00
 2004 013    96   0.262    0.06    1012    0.00
 2004 014    97   0.262    0.06    1012    0.00
 2004 015    98   0.262    0.06    1011    0.00
 2004 016    99   0.261    0.06    1010    0.00
 2004 017   100   0.261    0.06    1010    0.00
 2004 018   101   0.261    0.06    1009    0.00
 2004 019   102   0.261    0.06    1009    0.00
 2004 020   103   0.261    0.06    1008    0.35
 2004 021   104   0.259    0.06     998    0.27
 2004 022   105   0.255    0.06     982    0.21
 2004 023   106   0.251    0.06     965    0.17
 2004 024   107   0.248    0.06     952    0.13
 2004 025   108   0.246    0.05     941    0.10
 2004 026   109   0.244    0.05     932    0.08
 2004 027   110   0.242    0.05     924    0.07
 2004 028   111   0.240    0.05     917    0.05
 2004 029   112   0.239    0.05     910    0.04
 2004 030   113   0.238    0.05     905    0.03
 2004 031   114   0.237    0.05     900    0.03
 2004 032   115   0.236    0.05     896    0.02
 2004 033   116   0.235    0.05     893    0.02
 2004 034   117   0.235    0.05     891    0.01
 2004 035   118   0.234    0.05     889    0.01
 2004 036   119   0.234    0.05     888    0.01
 2004 037   120   0.234    0.05     887    0.01
 2004 038   121   0.234    0.05     887    0.01
 2004 039   122   0.234    0.05     886    0.00
 2004 040   123   0.233    0.05     886    0.00
 2004 041   124   0.233    0.05     886    0.00
 2004 042   125   0.233    0.05     885    0.00
 2004 043   126   0.233    0.05     885    0.00
 2004 044   127   0.233    0.05     884    0.00
 2004 045   128   0.233    0.05     884    0.00
 2004 046   129   0.233    0.05     883    0.00
 2004 047   130   0.233    0.05     883    0.00
 2004 048   131   0.233    0.05     882    0.00
 2004 049   132   0.232    0.05     882    0.00
 2004 050   133   0.232    0.05     881    0.00
 2004 051   134   0.232    0.05     881    0.00
 2004 052   135   0.232    0.05     880    0.00
 2004 053   136   0.232    0.05     880    0.00
 2004 054   137   0.232    0.05     879    0.00
 2004 055   138   0.232    0.05     879    0.00
 2004 056   139   0.232    0.05     878    0.00
 2004 057   140   0.231    0.05     878    0.00
 2004 058   141   0.231    0.05     877    0.00
 2004 059   142   0.231    0.05     876    0.31
 2004 060   143   0.229    0.05     869    0.25
 2004 061   144   0.226    0.05     854    0.32
 2004 062   145   0.223    0.04     839    0.29
 2004 063   146   0.219    0.04     826    0.23
 2004 064   147   0.217    0.04     814    0.19
 2004 065   148   0.214    0.04     805    0.15
 2004 066   149   0.213    0.04     797    0.13
 2004 067   150   0.211    0.04     791    0.10
 2004 068   151   0.210    0.04     786    0.08
 2004 069   152   0.209    0.04     782    0.07
 2004 070   153   0.208    0.04     778    0.06
 2004 071   154   0.207    0.04     775    0.05
 2004 072   155   0.207    0.04     772    0.04
 2004 073   156   0.206    0.04     769    0.03
 2004 074   157   0.206    0.04     767    0.03
 2004 075   158   0.205    0.04     765    0.02
 2004 076   159   0.205    0.04     764    0.02
 2004 077   160   0.205    0.04     763    0.01
 2004 078   161   0.205    0.04     763    0.01
 2004 079   162   0.204    0.04     762    0.01
 2004 080   163   0.204    0.04     762    0.01
 2004 081   164   0.204    0.04     762    0.01
 2004 082   165   0.204    0.04     761    0.01
 2004 083   166   0.204    0.04     761    0.00
 2004 084   167   0.204    0.04     760    0.00
 2004 085   168   0.204    0.04     760    0.00
 2004 086   169   0.204    0.04     760    0.00
 2004 087   170   0.204    0.04     759    0.00
 2004 088   171   0.204    0.04     759    0.00
 2004 089   172   0.203    0.04     758    0.27
 2004 090   173   0.202    0.04     753    0.22
 2004 091   174   0.199    0.03     741    0.18
 2004 092   175   0.197    0.03     730    0.15
 2004 093   176   0.194    0.03     719    0.13
 2004 094   177   0.192    0.03     711    0.11
 2004 095   178   0.190    0.03     704    0.09
 2004 096   179   0.189    0.03     698    0.07
 2004 097   180   0.188    0.03     693    0.06
 2004 098   181   0.187    0.03     689    0.05
 2004 099   182   0.186    0.03     685    0.24
 2004 100   183   0.184    0.03     679    0.20
 2004 101   184   0.182    0.03     670    0.24
 2004 102   185   0.180    0.03     662    0.21
 2004 103   186   0.178    0.03     655    0.17
 2004 104   187   0.176    0.03     647    0.15
 2004 105   188   0.175    0.03     641    0.23
 2004 106   189   0.173    0.03     634    0.20
 2004 107   190   0.171    0.02     627    0.17
 2004 108   191   0.170    0.02     619    0.14
 2004 109   192   0.168    0.02     613    0.12
 2004 110   193   0.167    0.02     608    0.10
 2004 111   194   0.166    0.02     604    0.22
 2004 112   195   0.165    0.02     599    0.19
 2004 113   196   0.163    0.02     593    0.21
 2004 114   197   0.161    0.02     586    0.18
 2004 115   198   0.160    0.02     580    0.21
 2004 116   199   0.158    0.02     574    0.18
 2004 117   200   0.157    0.02     568    0.20
 2004 118   201   0.155    0.02     563    0.18
 2004 119   202   0.154    0.02     557    0.15
 2004 120   203   0.153    0.02     553    0.20
 2004 121   204   0.152    0.02     548    0.17
 2004 122   205   0.150    0.02     544    0.15
 2004 123   206   0.149    0.02     538    0.13
 2004 124   207   0.148    0.02     534    0.11
 2004 125   208   0.147    0.02     531    0.19
 2004 126   209   0.146    0.02     527    0.18
 2004 127   210   0.145    0.02     521    0.15
 2004 128   211   0.143    0.02     516    0.14
 2004 129   212   0.142    0.02     512    0.12
 2004 130   213   0.142    0.02     509    0.10
 2004 131   214   0.141    0.02     506    0.09
 2004 132   215   0.140    0.02     503    0.18
 2004 133   216   0.139    0.02     500    0.16
 2004 134   217   0.138    0.02     495    0.14
 2004 135   218   0.137    0.01     491    0.18
 2004 136   219   0.136    0.01     487    0.17
 2004 137   220   0.135    0.01     483    0.15
 2004 138   221   0.134    0.01     479    0.13
 2004 139   222   0.133    0.01     476    0.12
 2004 140   223   0.132    0.01     473    0.17
 2004 141   224   0.131    0.01     470    0.15
 2004 142   225   0.130    0.01     466    0.13
 2004 143   226   0.129    0.01     462    0.12
 2004 144   227   0.129    0.01     459    0.16
 2004 145   228   0.128    0.01     456    0.15
 2004 146   229   0.127    0.01     452    0.13
 2004 147   230   0.126    0.01     449    0.16
 2004 148   231   0.125    0.01     446    0.14
 2004 149   232   0.124    0.01     443    0.16
 2004 150   233   0.124    0.01     439    0.15
 2004 151   234   0.123    0.01     436    0.14
 2004 152   235   0.122    0.01     433    0.12
 2004 153   236   0.121    0.01     430    0.15
 2004 154   237   0.120    0.01     428    0.15
 2004 155   238   0.120    0.01     425    0.13
 2004 156   239   0.119    0.01     422    0.12
 2004 157   240   0.118    0.01     419    0.11
 2004 158   241   0.118    0.01     417    0.10
 2004 159   242   0.117    0.01     415    0.12
 2004 160   243   0.116    0.01     413    0.11
 2004 161   244   0.116    0.01     411    0.10
 2004 162   245   0.115    0.01     409    0.09
 2004 163   246   0.115    0.01     408    0.14
 2004 164   247   0.115    0.01     406    0.14
 2004 165   248   0.114    0.01     403    0.14
 2004 166   249   0.113    0.01     400    0.14
 2004 167   250   0.112    0.01     397    0.14
 2004 168   251   0.112    0.01     395    0.13
 2004 169   252   0.111    0.01     392    0.14
 2004 170   253   0.110    0.01     390    0.13
 2004 171   254   0.110    0.01     387    0.11
 2004 172   255   0.109    0.01     385    0.14
 2004 173   256   0.109    0.01     383    0.13
 2004 174   257   0.108    0.01     380    0.12
 2004 175   258   0.107    0.01     378    0.11
 2004 176   259   0.107    0.01     376    0.10
 2004 177   260   0.106    0.01     374    0.09
 2004 178   261   0.106    0.01     372    0.13
 2004 179   262   0.105    0.01     371    0.13
 2004 180   263   0.105    0.01     368    0.12
 2004 181   264   0.104    0.01     366    0.11
 2004 182   265   0.103    0.01     364    0.13
 2004 183   266   0.103    0.01     362    0.12
 2004 184   267   0.102    0.01     360    0.11
 2004 185   268   0.102    0.01     357    0.13
 2004 186   269   0.101    0.01     356    0.12
 2004 187   270   0.101    0.01     354    0.12
 2004 188   271   0.100    0.01     352    0.12
 2004 189   272   0.100    0.01     350    0.12
 2004 190   273   0.099    0.01     348    0.12
 2004 191   274   0.099    0.01     346    0.12
 2004 192   275   0.098    0.01     344    0.12
 2004 193   276   0.098    0.01     342    0.12
 2004 194   277   0.097    0.01     340    0.11
 2004 195   278   0.097    0.01     338    0.12
 2004 196   279   0.096    0.01     337    0.11
 2004 197   280   0.096    0.01     335    0.10
 2004 198   281   0.095    0.01     333    0.09
 2004 199   282   0.095    0.01     332    0.12
 2004 200   283   0.094    0.01     330    0.11
 2004 201   284   0.094    0.01     329    0.10
 2004 202   285   0.093    0.01     327    0.09
 2004 203   286   0.093    0.01     325    0.12
 2004 204   287   0.093    0.01     324    0.11
 2004 205   288   0.092    0.01     322    0.10
 2004 206   289   0.092    0.01     320    0.09
 2004 207   290   0.091    0.01     319    0.08
 2004 208   291   0.091    0.01     318    0.08
 2004 209   292   0.091    0.01     317    0.11
 2004 210   293   0.090    0.01     315    0.11
 2004 211   294   0.090    0.01     314    0.10
 2004 212   295   0.089    0.01     312    0.11
 2004 213   296   0.089    0.01     310    0.11
 2004 214   297   0.088    0.01     309    0.10
 2004 215   298   0.088    0.01     307    0.11
 2004 216   299   0.088    0.01     306    0.11
 2004 217   300   0.087    0.01     304    0.11
 2004 218   301   0.087    0.01     302    0.11
 2004 219   302   0.086    0.01     301    0.11
 2004 220   303   0.086    0.01     300    0.11
 2004 221   304   0.086    0.01     298    0.10
 2004 222   305   0.085    0.01     297    0.10
 2004 223   306   0.085    0.01     295    0.09
 2004 224   307   0.084    0.01     293    0.10
 2004 225   308   0.084    0.01     292    0.10
 2004 226   309   0.083    0.01     290    0.10
 2004 227   310   0.083    0.01     289    0.10
 2004 228   311   0.083    0.01     288    0.10
 2004 229   312   0.082    0.01     286    0.09
 2004 230   313   0.082    0.01     285    0.09
 2004 231   314   0.081    0.01     283    0.08
 2004 232   315   0.081    0.01     282    0.10
 2004 233   316   0.081    0.01     281    0.09
 2004 234   317   0.080    0.01     279    0.09
 2004 235   318   0.080    0.00     278    0.10
 2004 236   319   0.080    0.00     277    0.10
 2004 237   320   0.079    0.00     276    0.09
 2004 238   321   0.079    0.00     274    0.10
 2004 239   322   0.079    0.00     273    0.10
 2004 240   323   0.078    0.00     272    0.09
 2004 241   324   0.078    0.00     271    0.10
 2004 242   325   0.078    0.00     269    0.09
 2004 243   326   0.077    0.00     268    0.09
 2004 244   327   0.077    0.00     266    0.09
 2004 245   328   0.076    0.00     265    0.09
 2004 246   329   0.076    0.00     264    0.09
 2004 247   330   0.076    0.00     263    0.09
 2004 248   331   0.075    0.00     261    0.09
 2004 249   332   0.075    0.00     260    0.09
 2004 250   333   0.075    0.00     259    0.09
 2004 251   334   0.074    0.00     258    0.09
 2004 252   335   0.074    0.00     256    0.08
 2004 253   336   0.074    0.00     255    0.08
 2004 254   337   0.073    0.00     254    0.07
 2004 255   338   0.073    0.00     253    0.09
 2004 256   339   0.073    0.00     252    0.09
 2004 257   340   0.072    0.00     251    0.09
 2004 258   341   0.072    0.00     250    0.09
 2004 259   342   0.072    0.00     248    0.09
 2004 260   343   0.072    0.00     247    0.08
 2004 261   344   0.071    0.00     246    0.08
 2004 262   345   0.071    0.00     245    0.07
 2004 263   346   0.071    0.00     244    0.09
 2004 264   347   0.070    0.00     243    0.08
 2004 265   348   0.070    0.00     242    0.09
 2004 266   349   0.070    0.00     241    0.08
 2004 267   350   0.069    0.00     240    0.08
 2004 268   351   0.069    0.00     239    0.08
 2004 269   352   0.069    0.00     238    0.08
 2004 270   353   0.069    0.00     237    0.08
 2004 271   354   0.068    0.00     235    0.08
 2004 272   355   0.068    0.00     234    0.08
 2004 273   356   0.068    0.00     233    0.08
 2004 274   357   0.067    0.00     232    0.08
 2004 275   358   0.067    0.00     231    0.07
 2004 276   359   0.067    0.00     229    0.07
 2004 277   360   0.066    0.00     228    0.07
 2004 278   361   0.066    0.00     227    0.08
 2004 279   362   0.066    0.00     226    0.08
 2004 280   363   0.065    0.00     225    0.07
 2004 281   364   0.065    0.00     224    0.07
 2004 282   365   0.065    0.00     224    0.06
 2004 283   366   0.065    0.00     223    0.06
 2004 284   367   0.065    0.00     222    0.06
 2004 285   368   0.064    0.00     222    0.08
 2004 286   369   0.064    0.00     221    0.07
 2004 287   370   0.064    0.00     220    0.07
 2004 288   371   0.063    0.00     219    0.07
 2004 289   372   0.063    0.00     218    0.06
 2004 290   373   0.063    0.00     217    0.06
 2004 291   374   0.063    0.00     216    0.06
 2004 292   375   0.063    0.00     215    0.05
 2004 293   376   0.062    0.00     215    0.05
 2004 294   377   0.062    0.00     214    0.05

*DSSAT Cropping System Model Ver. 4.5.1.023 -Stub         OCT 13, 2014; 10:39:37
                                                                                
*RUN   5        : N60 P60                   MZCER045 GHWA0401    5              
 MODEL          : MZCER045 - Maize                                              
 EXPERIMENT     : GHWA0401 MZ                                                   
 DATA PATH      :                                                               
 TREATMENT  5   : N60 P60                   MZCER045                            
  
@YEAR DOY   DAS    MCFD   MDEPD    MWAD    MWTD
 2003 282     0   0.834    1.44    5986    1.05
 2003 283     1   0.824    1.37    5798    0.30
 2003 284     2   0.816    1.31    5640    0.75
 2003 285     3   0.808    1.26    5500    1.67
 2003 286     4   0.799    1.21    5343    0.76
 2003 287     5   0.789    1.15    5185    2.00
 2003 288     6   0.780    1.10    5050    0.99
 2003 289     7   0.773    1.06    4936    1.95
 2003 290     8   0.765    1.02    4828    1.10
 2003 291     9   0.758    0.99    4733    0.62
 2003 292    10   0.751    0.96    4628    0.22
 2003 293    11   0.742    0.92    4519    0.08
 2003 294    12   0.734    0.89    4420    0.03
 2003 295    13   0.727    0.86    4333    0.01
 2003 296    14   0.721    0.83    4257    1.52
 2003 297    15   0.713    0.80    4159    0.59
 2003 298    16   0.704    0.77    4057    0.23
 2003 299    17   0.695    0.74    3955    0.09
 2003 300    18   0.686    0.71    3866    0.04
 2003 301    19   0.679    0.69    3791    0.02
 2003 302    20   0.673    0.67    3729    0.01
 2003 303    21   0.668    0.65    3676    1.31
 2003 304    22   0.661    0.63    3602    0.56
 2003 305    23   0.653    0.61    3525    0.25
 2003 306    24   0.646    0.59    3458    0.11
 2003 307    25   0.639    0.57    3399    0.05
 2003 308    26   0.634    0.56    3349    0.02
 2003 309    27   0.629    0.54    3307    0.01
 2003 310    28   0.625    0.53    3271    1.16
 2003 311    29   0.620    0.52    3223    0.54
 2003 312    30   0.614    0.51    3171    0.57
 2003 313    31   0.607    0.49    3117    0.27
 2003 314    32   0.601    0.48    3060    0.13
 2003 315    33   0.595    0.46    3010    0.06
 2003 316    34   0.590    0.45    2968    0.03
 2003 317    35   0.585    0.44    2933    0.02
 2003 318    36   0.581    0.43    2902    0.01
 2003 319    37   0.578    0.43    2875    0.00
 2003 320    38   0.575    0.42    2852    0.00
 2003 321    39   0.572    0.42    2832    0.00
 2003 322    40   0.570    0.41    2815    0.00
 2003 323    41   0.568    0.41    2801    0.00
 2003 324    42   0.567    0.40    2790    0.00
 2003 325    43   0.566    0.40    2781    0.00
 2003 326    44   0.565    0.40    2774    0.00
 2003 327    45   0.564    0.40    2769    0.00
 2003 328    46   0.564    0.40    2766    0.00
 2003 329    47   0.564    0.40    2764    0.00
 2003 330    48   0.563    0.40    2763    0.00
 2003 331    49   0.563    0.40    2761    0.00
 2003 332    50   0.563    0.40    2759    0.00
 2003 333    51   0.563    0.40    2757    0.00
 2003 334    52   0.563    0.40    2756    0.00
 2003 335    53   0.562    0.40    2754    0.00
 2003 336    54   0.562    0.39    2752    0.00
 2003 337    55   0.562    0.39    2751    0.73
 2003 338    56   0.562    0.39    2749    0.38
 2003 339    57   0.561    0.39    2747    0.20
 2003 340    58   0.561    0.39    2746    0.10
 2003 341    59   0.561    0.39    2744    0.05
 2003 342    60   0.561    0.39    2742    0.03
 2003 343    61   0.561    0.39    2741    0.01
 2003 344    62   0.560    0.39    2739    0.01
 2003 345    63   0.560    0.39    2737    0.00
 2003 346    64   0.560    0.39    2736    0.00
 2003 347    65   0.560    0.39    2734    0.00
 2003 348    66   0.559    0.39    2732    0.00
 2003 349    67   0.559    0.39    2731    0.00
 2003 350    68   0.559    0.39    2729    0.00
 2003 351    69   0.559    0.39    2727    0.00
 2003 352    70   0.559    0.39    2726    0.00
 2003 353    71   0.558    0.39    2724    0.00
 2003 354    72   0.558    0.39    2723    0.00
 2003 355    73   0.558    0.39    2721    0.00
 2003 356    74   0.558    0.39    2719    0.00
 2003 357    75   0.558    0.39    2718    0.00
 2003 358    76   0.557    0.39    2716    0.00
 2003 359    77   0.557    0.39    2715    0.00
 2003 360    78   0.557    0.39    2713    0.00
 2003 361    79   0.557    0.38    2712    0.00
 2003 362    80   0.556    0.38    2710    0.00
 2003 363    81   0.556    0.38    2709    0.00
 2003 364    82   0.556    0.38    2707    0.00
 2003 365    83   0.556    0.38    2706    0.00
 2004 001    84   0.556    0.38    2704    0.00
 2004 002    85   0.556    0.38    2703    0.00
 2004 003    86   0.555    0.38    2701    0.00
 2004 004    87   0.555    0.38    2700    0.00
 2004 005    88   0.555    0.38    2698    0.00
[...]
 2004 270   353   0.148    0.02     534    0.19
 2004 271   354   0.147    0.02     532    0.18
 2004 272   355   0.147    0.02     529    0.16
 2004 273   356   0.146    0.02     527    0.19
 2004 274   357   0.146    0.02     524    0.16
 2004 275   358   0.145    0.02     521    0.14
 2004 276   359   0.144    0.02     519    0.13
 2004 277   360   0.144    0.02     517    0.11
 2004 278   361   0.143    0.02     516    0.18
 2004 279   362   0.143    0.02     515    0.16
 2004 280   363   0.143    0.02     513    0.14
 2004 281   364   0.142    0.02     512    0.12
 2004 282   365   0.142    0.02     511    0.11
 2004 283   366   0.142    0.02     510    0.10
 2004 284   367   0.142    0.02     510    0.08
 2004 285   368   0.142    0.02     509    0.18
 2004 286   369   0.141    0.02     507    0.16
 2004 287   370   0.141    0.02     505    0.14
 2004 288   371   0.140    0.02     504    0.12
 2004 289   372   0.140    0.02     503    0.11
 2004 290   373   0.140    0.02     502    0.10
 2004 291   374   0.140    0.02     501    0.08
 2004 292   375   0.140    0.02     501    0.07
 2004 293   376   0.139    0.02     500    0.07
 2004 294   377   0.139    0.02     500    0.06

*DSSAT Cropping System Model Ver. 4.5.1.023 -Stub         OCT 13, 2014; 10:39:37
                                                                                
*RUN   9        : N120 P90                  MZCER045 GHWA0401    9              
 MODEL          : MZCER045 - Maize                                              
 EXPERIMENT     : GHWA0401 MZ                                                   
 DATA PATH      :                                                               
 TREATMENT  9   : N120 P90                  MZCER045                            
  
@YEAR DOY   DAS    MCFD   MDEPD    MWAD    MWTD
 2003 282     0   0.791    1.16    5213    0.91
 2003 283     1   0.780    1.10    5049    0.30
 2003 284     2   0.771    1.05    4911    0.72
 2003 285     3   0.762    1.01    4789    1.44
 2003 286     4   0.752    0.96    4653    0.74
 2003 287     5   0.742    0.92    4514    1.78
 2003 288     6   0.733    0.88    4396    0.93
 2003 289     7   0.724    0.85    4296    1.75
 2003 290     8   0.717    0.82    4202    1.00
 2003 291     9   0.709    0.79    4118    0.61
 2003 292    10   0.701    0.76    4027    0.24
 2003 293    11   0.693    0.73    3931    0.10
 2003 294    12   0.685    0.70    3847    0.04
 2003 295    13   0.678    0.68    3774    0.02
 2003 296    14   0.671    0.66    3709    1.33
 2003 297    15   0.663    0.64    3624    0.57
 2003 298    16   0.654    0.61    3534    0.25
 2003 299    17   0.645    0.58    3448    0.11
 2003 300    18   0.637    0.56    3375    0.05
 2003 301    19   0.630    0.55    3313    0.02
 2003 302    20   0.624    0.53    3262    0.01
 2003 303    21   0.619    0.52    3219    1.15
 2003 304    22   0.612    0.50    3155    0.54
 2003 305    23   0.604    0.48    3088    0.26
 2003 306    24   0.597    0.47    3030    0.13
 2003 307    25   0.591    0.45    2980    0.06
 2003 308    26   0.586    0.44    2937    0.03
 2003 309    27   0.581    0.43    2901    0.02
 2003 310    28   0.577    0.43    2871    1.02
 2003 311    29   0.572    0.41    2828    0.52
 2003 312    30   0.566    0.40    2782    0.55
 2003 313    31   0.560    0.39    2734    0.29
 2003 314    32   0.553    0.38    2684    0.15
 2003 315    33   0.547    0.37    2639    0.08
 2003 316    34   0.542    0.36    2604    0.04
 2003 317    35   0.538    0.35    2574    0.02
 2003 318    36   0.534    0.34    2547    0.01
 2003 319    37   0.531    0.34    2524    0.01
 2003 320    38   0.528    0.33    2504    0.00
 2003 321    39   0.526    0.33    2487    0.00
 2003 322    40   0.524    0.33    2473    0.00
 2003 323    41   0.522    0.32    2461    0.00
 2003 324    42   0.521    0.32    2451    0.00
 2003 325    43   0.520    0.32    2444    0.00
 2003 326    44   0.519    0.32    2438    0.00
 2003 327    45   0.518    0.32    2435    0.00
 2003 328    46   0.518    0.32    2432    0.00
 2003 329    47   0.518    0.32    2431    0.00
 2003 330    48   0.518    0.32    2429    0.00
 2003 331    49   0.517    0.32    2428    0.00
 2003 332    50   0.517    0.32    2426    0.00
 2003 333    51   0.517    0.32    2425    0.00
 2003 334    52   0.517    0.32    2423    0.00
 2003 335    53   0.516    0.31    2422    0.00
 2003 336    54   0.516    0.31    2420    0.00
 2003 337    55   0.516    0.31    2419    0.67
 2003 338    56   0.516    0.31    2417    0.38
 2003 339    57   0.516    0.31    2416    0.21
 2003 340    58   0.515    0.31    2414    0.12
 2003 341    59   0.515    0.31    2413    0.07
 2003 342    60   0.515    0.31    2411    0.04
 2003 343    61   0.515    0.31    2410    0.02
 2003 344    62   0.514    0.31    2409    0.01
 2003 345    63   0.514    0.31    2407    0.01
 2003 346    64   0.514    0.31    2406    0.00
 2003 347    65   0.514    0.31    2404    0.00
 2003 348    66   0.514    0.31    2403    0.00
 2003 349    67   0.513    0.31    2401    0.00
 2003 350    68   0.513    0.31    2400    0.00
 2003 351    69   0.513    0.31    2398    0.00
 2003 352    70   0.513    0.31    2397    0.00
 2003 353    71   0.513    0.31    2395    0.00
 2003 354    72   0.512    0.31    2394    0.00
 2003 355    73   0.512    0.31    2393    0.00
 2003 356    74   0.512    0.31    2391    0.00
 2003 357    75   0.512    0.31    2390    0.00
 2003 358    76   0.512    0.31    2388    0.00
 2003 359    77   0.511    0.31    2387    0.00
 2003 360    78   0.511    0.31    2386    0.00
 2003 361    79   0.511    0.31    2384    0.00
 2003 362    80   0.511    0.31    2383    0.00
 2003 363    81   0.511    0.31    2382    0.00
 2003 364    82   0.510    0.31    2380    0.00
 2003 365    83   0.510    0.30    2379    0.00
 2004 001    84   0.510    0.30    2378    0.00
 2004 002    85   0.510    0.30    2376    0.00
 2004 003    86   0.510    0.30    2375    0.00
 2004 004    87   0.509    0.30    2374    0.00
 2004 005    88   0.509    0.30    2372    0.00
 2004 006    89   0.509    0.30    2371    0.00
 2004 007    90   0.509    0.30    2369    0.00
 2004 008    91   0.509    0.30    2368    0.00
 2004 009    92   0.508    0.30    2366    0.00
 2004 010    93   0.508    0.30    2365    0.00
 2004 011    94   0.508    0.30    2364    0.00
 2004 012    95   0.508    0.30    2362    0.00
 2004 013    96   0.507    0.30    2361    0.00
 2004 014    97   0.507    0.30    2359    0.00
 2004 015    98   0.507    0.30    2358    0.00
 2004 016    99   0.507    0.30    2357    0.00
 2004 017   100   0.507    0.30    2355    0.00
 2004 018   101   0.506    0.30    2354    0.00
 2004 019   102   0.506    0.30    2352    0.00
 2004 020   103   0.506    0.30    2351    0.82
 2004 021   104   0.503    0.29    2330    0.47
 2004 022   105   0.497    0.29    2292    0.27
 2004 023   106   0.491    0.28    2253    0.16
 2004 024   107   0.486    0.27    2219    0.09
 2004 025   108   0.482    0.26    2192    0.05
 2004 026   109   0.478    0.26    2169    0.03
 2004 027   110   0.475    0.25    2148    0.02
 2004 028   111   0.472    0.25    2130    0.01
 2004 029   112   0.470    0.25    2113    0.01
 2004 030   113   0.467    0.24    2099    0.00
 2004 031   114   0.465    0.24    2087    0.00
 2004 032   115   0.464    0.24    2076    0.00
 2004 033   116   0.462    0.24    2068    0.00
 2004 034   117   0.461    0.24    2061    0.00
 2004 035   118   0.460    0.23    2056    0.00
 2004 036   119   0.460    0.23    2052    0.00
 2004 037   120   0.459    0.23    2050    0.00
 2004 038   121   0.459    0.23    2049    0.00
 2004 039   122   0.459    0.23    2048    0.00
 2004 040   123   0.459    0.23    2047    0.00
 2004 041   124   0.459    0.23    2046    0.00
 2004 042   125   0.459    0.23    2045    0.00
 2004 043   126   0.458    0.23    2044    0.00
 2004 044   127   0.458    0.23    2043    0.00
 2004 045   128   0.458    0.23    2042    0.00
 2004 046   129   0.458    0.23    2041    0.00
 2004 047   130   0.458    0.23    2040    0.00
 2004 048   131   0.457    0.23    2038    0.00
 2004 049   132   0.457    0.23    2037    0.00
 2004 050   133   0.457    0.23    2036    0.00
 2004 051   134   0.457    0.23    2035    0.00
 2004 052   135   0.457    0.23    2034    0.00
 2004 053   136   0.457    0.23    2033    0.00
 2004 054   137   0.456    0.23    2031    0.00
 2004 055   138   0.456    0.23    2030    0.00
 2004 056   139   0.456    0.23    2029    0.00
 2004 057   140   0.456    0.23    2028    0.00
 2004 058   141   0.456    0.23    2027    0.00
 2004 059   142   0.455    0.23    2025    0.71
 2004 060   143   0.453    0.22    2009    0.43
 2004 061   144   0.447    0.22    1975    0.81
 2004 062   145   0.442    0.21    1942    0.55
 2004 063   146   0.436    0.21    1912    0.34
 2004 064   147   0.432    0.20    1885    0.22
 2004 065   148   0.428    0.20    1863    0.14
 2004 066   149   0.425    0.19    1846    0.09
 2004 067   150   0.423    0.19    1832    0.06
 2004 068   151   0.421    0.19    1820    0.04
 2004 069   152   0.419    0.19    1810    0.02
 2004 070   153   0.417    0.18    1801    0.01
 2004 071   154   0.416    0.18    1792    0.01
 2004 072   155   0.415    0.18    1785    0.01
 2004 073   156   0.414    0.18    1779    0.00
 2004 074   157   0.413    0.18    1774    0.00
 2004 075   158   0.412    0.18    1770    0.00
 2004 076   159   0.411    0.18    1767    0.00
 2004 077   160   0.411    0.18    1765    0.00
 2004 078   161   0.411    0.18    1763    0.00
 2004 079   162   0.411    0.18    1763    0.00
 2004 080   163   0.411    0.18    1762    0.00
 2004 081   164   0.410    0.18    1761    0.00
 2004 082   165   0.410    0.18    1760    0.00
 2004 083   166   0.410    0.18    1759    0.00
 2004 084   167   0.410    0.18    1758    0.00
 2004 085   168   0.410    0.18    1757    0.00
 2004 086   169   0.410    0.18    1756    0.00
 2004 087   170   0.409    0.18    1755    0.00
 2004 088   171   0.409    0.18    1755    0.00
 2004 089   172   0.409    0.18    1754    0.61
 2004 090   173   0.407    0.17    1741    0.40
 2004 091   174   0.402    0.17    1714    0.26
 2004 092   175   0.398    0.16    1689    0.17
 2004 093   176   0.393    0.16    1666    0.11
 2004 094   177   0.390    0.16    1648    0.08
 2004 095   178   0.387    0.15    1632    0.05
 2004 096   179   0.385    0.15    1619    0.03
 2004 097   180   0.383    0.15    1607    0.02
 2004 098   181   0.381    0.15    1596    0.02
 2004 099   182   0.379    0.15    1587    0.56
 2004 100   183   0.376    0.14    1574    0.38
 2004 101   184   0.373    0.14    1555    0.61
 2004 102   185   0.369    0.14    1537    0.42
 2004 103   186   0.366    0.13    1519    0.29
 2004 104   187   0.363    0.13    1502    0.20
 2004 105   188   0.360    0.13    1488    0.55
 2004 106   189   0.357    0.13    1473    0.38
 2004 107   190   0.354    0.12    1457    0.27
 2004 108   191   0.351    0.12    1440    0.19
 2004 109   192   0.348    0.12    1425    0.13
 2004 110   193   0.346    0.12    1414    0.09
 2004 111   194   0.344    0.12    1404    0.51
 2004 112   195   0.342    0.11    1394    0.36
 2004 113   196   0.339    0.11    1379    0.53
 2004 114   197   0.336    0.11    1364    0.38
 2004 115   198   0.333    0.11    1351    0.52
 2004 116   199   0.330    0.11    1336    0.37
 2004 117   200   0.328    0.10    1323    0.51
 2004 118   201   0.325    0.10    1310    0.37
 2004 119   202   0.323    0.10    1298    0.27
 2004 120   203   0.320    0.10    1288    0.48
 2004 121   204   0.318    0.10    1278    0.35
 2004 122   205   0.316    0.10    1267    0.26
 2004 123   206   0.314    0.09    1255    0.19
 2004 124   207   0.312    0.09    1245    0.14
 2004 125   208   0.310    0.09    1237    0.45
 2004 126   209   0.308    0.09    1228    0.35
 2004 127   210   0.306    0.09    1215    0.26
 2004 128   211   0.303    0.09    1204    0.19
 2004 129   212   0.301    0.09    1195    0.14
 2004 130   213   0.300    0.08    1187    0.11
 2004 131   214   0.298    0.08    1180    0.08
 2004 132   215   0.297    0.08    1174    0.42
 2004 133   216   0.295    0.08    1167    0.31
 2004 134   217   0.293    0.08    1156    0.24
 2004 135   218   0.291    0.08    1146    0.42
 2004 136   219   0.289    0.08    1137    0.35
 2004 137   220   0.287    0.08    1128    0.27
 2004 138   221   0.285    0.08    1119    0.20
 2004 139   222   0.283    0.07    1110    0.15
 2004 140   223   0.282    0.07    1103    0.40
 2004 141   224   0.280    0.07    1097    0.30
 2004 142   225   0.279    0.07    1088    0.23
 2004 143   226   0.277    0.07    1080    0.18
 2004 144   227   0.275    0.07    1072    0.39
 2004 145   228   0.274    0.07    1065    0.30
 2004 146   229   0.272    0.07    1057    0.23
 2004 147   230   0.270    0.07    1049    0.39
 2004 148   231   0.269    0.07    1042    0.30
 2004 149   232   0.267    0.07    1035    0.39
 2004 150   233   0.265    0.06    1027    0.34
 2004 151   234   0.264    0.06    1020    0.27
 2004 152   235   0.262    0.06    1013    0.21
 2004 153   236   0.261    0.06    1006    0.37
 2004 154   237   0.259    0.06    1000    0.32
 2004 155   238   0.258    0.06     993    0.25
 2004 156   239   0.256    0.06     987    0.19
 2004 157   240   0.255    0.06     981    0.15
 2004 158   241   0.254    0.06     975    0.12
 2004 159   242   0.252    0.06     970    0.17
 2004 160   243   0.251    0.06     965    0.13
 2004 161   244   0.250    0.06     961    0.10
 2004 162   245   0.250    0.06     957    0.08
 2004 163   246   0.249    0.06     953    0.34
 2004 164   247   0.248    0.06     949    0.28
 2004 165   248   0.246    0.05     942    0.27
 2004 166   249   0.245    0.05     936    0.33
 2004 167   250   0.243    0.05     929    0.31
 2004 168   251   0.242    0.05     924    0.25
 2004 169   252   0.241    0.05     918    0.34
 2004 170   253   0.239    0.05     912    0.27
 2004 171   254   0.238    0.05     906    0.21
 2004 172   255   0.237    0.05     901    0.33
 2004 173   256   0.236    0.05     897    0.29
 2004 174   257   0.235    0.05     891    0.23
 2004 175   258   0.233    0.05     885    0.19
 2004 176   259   0.232    0.05     880    0.15
 2004 177   260   0.231    0.05     876    0.12
 2004 178   261   0.230    0.05     872    0.31
 2004 179   262   0.229    0.05     868    0.27
 2004 180   263   0.228    0.05     863    0.22
 2004 181   264   0.227    0.05     858    0.17
 2004 182   265   0.226    0.05     852    0.31
 2004 183   266   0.225    0.04     848    0.25
 2004 184   267   0.223    0.04     843    0.20
 2004 185   268   0.222    0.04     838    0.30
 2004 186   269   0.221    0.04     833    0.27
 2004 187   270   0.220    0.04     829    0.30
 2004 188   271   0.219    0.04     824    0.29
 2004 189   272   0.218    0.04     820    0.29
 2004 190   273   0.217    0.04     816    0.29
 2004 191   274   0.216    0.04     811    0.29
 2004 192   275   0.215    0.04     807    0.28
 2004 193   276   0.214    0.04     802    0.28
 2004 194   277   0.213    0.04     798    0.23
 2004 195   278   0.212    0.04     794    0.29
 2004 196   279   0.211    0.04     790    0.24
 2004 197   280   0.210    0.04     786    0.19
 2004 198   281   0.209    0.04     782    0.16
 2004 199   282   0.208    0.04     778    0.28
 2004 200   283   0.207    0.04     774    0.23
 2004 201   284   0.206    0.04     770    0.19
 2004 202   285   0.205    0.04     766    0.16
 2004 203   286   0.204    0.04     762    0.27
 2004 204   287   0.203    0.04     758    0.23
 2004 205   288   0.202    0.04     754    0.19
 2004 206   289   0.201    0.04     750    0.16
 2004 207   290   0.200    0.03     746    0.13
 2004 208   291   0.200    0.03     743    0.11
 2004 209   292   0.199    0.03     740    0.26
 2004 210   293   0.198    0.03     737    0.23
 2004 211   294   0.198    0.03     734    0.19
 2004 212   295   0.197    0.03     730    0.26
 2004 213   296   0.196    0.03     726    0.24
 2004 214   297   0.195    0.03     722    0.20
 2004 215   298   0.194    0.03     718    0.26
 2004 216   299   0.193    0.03     714    0.24
 2004 217   300   0.192    0.03     711    0.26
 2004 218   301   0.191    0.03     707    0.24
 2004 219   302   0.190    0.03     704    0.22
 2004 220   303   0.190    0.03     701    0.24
 2004 221   304   0.189    0.03     697    0.26
 2004 222   305   0.188    0.03     694    0.22
 2004 223   306   0.187    0.03     691    0.19
 2004 224   307   0.186    0.03     687    0.24
 2004 225   308   0.185    0.03     684    0.21
 2004 226   309   0.185    0.03     680    0.24
 2004 227   310   0.184    0.03     677    0.22
 2004 228   311   0.183    0.03     674    0.23
 2004 229   312   0.182    0.03     671    0.19
 2004 230   313   0.182    0.03     668    0.16
 2004 231   314   0.181    0.03     664    0.14
 2004 232   315   0.180    0.03     661    0.24
 2004 233   316   0.179    0.03     657    0.21
 2004 234   317   0.178    0.03     654    0.18
 2004 235   318   0.177    0.03     651    0.23
 2004 236   319   0.177    0.03     648    0.23
 2004 237   320   0.176    0.03     645    0.20
 2004 238   321   0.175    0.03     642    0.23
 2004 239   322   0.174    0.03     639    0.22
 2004 240   323   0.174    0.03     636    0.19
 2004 241   324   0.173    0.03     633    0.23
 2004 242   325   0.172    0.03     630    0.22
 2004 243   326   0.171    0.02     627    0.18
 2004 244   327   0.171    0.02     624    0.22
 2004 245   328   0.170    0.02     621    0.19
 2004 246   329   0.169    0.02     618    0.23
 2004 247   330   0.168    0.02     615    0.21
 2004 248   331   0.168    0.02     612    0.22
 2004 249   332   0.167    0.02     609    0.19
 2004 250   333   0.166    0.02     606    0.22
 2004 251   334   0.166    0.02     603    0.21
 2004 252   335   0.165    0.02     600    0.18
 2004 253   336   0.164    0.02     597    0.15
 2004 254   337   0.163    0.02     594    0.13
 2004 255   338   0.163    0.02     592    0.21
 2004 256   339   0.162    0.02     589    0.20
 2004 257   340   0.161    0.02     587    0.21
 2004 258   341   0.161    0.02     584    0.20
 2004 259   342   0.160    0.02     582    0.21
 2004 260   343   0.160    0.02     580    0.18
 2004 261   344   0.159    0.02     578    0.15
 2004 262   345   0.158    0.02     575    0.13
 2004 263   346   0.158    0.02     573    0.20
 2004 264   347   0.157    0.02     571    0.19
 2004 265   348   0.157    0.02     568    0.20
 2004 266   349   0.156    0.02     566    0.17
 2004 267   350   0.155    0.02     563    0.20
 2004 268   351   0.155    0.02     560    0.17
 2004 269   352   0.154    0.02     557    0.15
 2004 270   353   0.153    0.02     555    0.20
 2004 271   354   0.153    0.02     553    0.19
 2004 272   355   0.152    0.02     550    0.16
 2004 273   356   0.151    0.02     547    0.20
 2004 274   357   0.151    0.02     545    0.17
 2004 275   358   0.150    0.02     542    0.15
 2004 276   359   0.149    0.02     540    0.13
 2004 277   360   0.149    0.02     538    0.11
 2004 278   361   0.149    0.02     537    0.19
 2004 279   362   0.148    0.02     535    0.17
 2004 280   363   0.148    0.02     534    0.15
 2004 281   364   0.148    0.02     533    0.13
 2004 282   365   0.147    0.02     532    0.11
 2004 283   366   0.147    0.02     531    0.10
 2004 284   367   0.147    0.02     530    0.09
 2004 285   368   0.147    0.02     530    0.19
 2004 286   369   0.146    0.02     528    0.16
 2004 287   370   0.146    0.02     526    0.14
 2004 288   371   0.146    0.02     524    0.13
 2004 289   372   0.145    0.02     523    0.11
 2004 290   373   0.145    0.02     522    0.10
 2004 291   374   0.145    0.02     522    0.08
 2004 292   375   0.145    0.02     521    0.07
 2004 293   376   0.145    0.02     521    0.07
 2004 294   377   0.145    0.02     521    0.06
