*PLANT N OUTPUT FILE

*DSSAT Cropping System Model Ver. 4.5.1.023 -Stub         DEC 04, 2014; 01:35:45
                                                                                
*RUN   1        : N0 P0                     MZCER045 GHWA0401    1              
 MODEL          : MZCER045 - Maize                                              
 EXPERIMENT     : GHWA0401 MZ ON-STATION NXP (EXPERIMENT NO.2) 9 TRT            
 DATA PATH      :                                                               
 TREATMENT  1   : N0 P0                     MZCER045                            
  
@YEAR DOY   DAS   DAP   CNAD   GNAD   VNAD   GN%D   VN%D   NUPC   LNAD   SNAD   LN%D   SN%D   RN%D   SNN0C   SNN1C
 2004 169   252     0    0.0    0.0    0.0   0.00   0.00    0.0    0.0    0.0    0.0   0.00   0.00    0.00    0.00
 2004 170   253     1    0.0    0.0    0.0   0.00   0.00    0.0    0.0    0.0    0.0   0.00   0.00    0.00    0.00
 2004 171   254     2    0.0    0.0    0.0   0.00   0.00    0.0    0.0    0.0    0.0   0.00   0.00    0.00    0.00
 2004 172   255     3    0.0    0.0    0.0   0.00   0.00    0.0    0.0    0.0    0.0   0.00   0.00    0.00    0.00
 2004 173   256     4    0.0    0.0    0.0   0.00   0.00    0.0    0.0    0.0    0.0   0.00   0.00    0.00    0.00
 2004 174   257     5    0.9    0.0    0.9   0.00   4.40    0.0    0.4    0.4    4.4   4.40   2.20    0.00    0.00
 2004 175   258     6    0.9    0.0    0.9   0.00   4.40    0.0    0.4    0.4    4.4   4.40   2.11    0.00    0.00
 2004 176   259     7    0.9    0.0    0.9   0.00   4.40    0.0    0.4    0.4    4.4   4.40   1.94    0.00    0.00
 2004 177   260     8    0.9    0.0    0.9   0.00   4.40    0.0    0.4    0.4    4.4   4.40   1.74    0.00    0.00
 2004 178   261     9    0.9    0.0    0.9   0.00   3.68    0.0    0.5    0.4    3.7   3.68   1.63    0.00    0.00
 2004 179   262    10    1.0    0.0    1.0   0.00   3.35    0.1    0.7    0.3    3.3   3.35   1.26    0.00    0.00
 2004 180   263    11    1.3    0.0    1.3   0.00   3.41    0.4    1.0    0.3    3.4   3.41   1.17    0.00    0.00
 2004 181   264    12    1.6    0.0    1.6   0.00   3.55    0.8    1.3    0.4    3.5   3.55   1.28    0.00    0.00
 2004 182   265    13    1.9    0.0    1.9   0.00   3.53    1.1    1.5    0.4    3.5   3.53   1.23    0.00    0.00
 2004 183   266    14    2.2    0.0    2.2   0.00   3.42    1.5    1.9    0.3    3.4   3.42   1.42    0.00    0.01
 2004 184   267    15    2.6    0.0    2.6   0.00   3.48    1.9    2.3    0.3    3.5   3.48   1.30    0.00    0.01
 2004 185   268    16    3.1    0.0    3.1   0.00   3.62    2.3    2.7    0.4    3.6   3.62   1.16    0.00    0.01
 2004 186   269    17    3.4    0.0    3.4   0.00   3.42    2.7    3.0    0.3    3.4   3.42   1.34    0.00    0.01
 2004 187   270    18    3.8    0.0    3.8   0.00   3.34    3.2    3.5    0.3    3.3   3.34   1.27    0.00    0.01
 2004 188   271    19    4.4    0.0    4.4   0.00   3.29    3.8    4.0    0.3    3.3   3.29   1.35    0.00    0.02
 2004 189   272    20    5.0    0.0    5.0   0.00   3.55    4.6    4.6    0.4    3.5   3.55   1.48    0.00    0.02
 2004 190   273    21    5.4    0.0    5.4   0.00   3.41    5.0    5.1    0.3    3.4   3.41   1.25    0.00    0.02
 2004 191   274    22    5.9    0.0    5.9   0.00   3.21    5.5    5.6    0.3    3.2   3.21   1.26    0.00    0.03
 2004 192   275    23    6.6    0.0    6.6   0.00   3.32    6.2    6.3    0.3    3.3   3.32   1.22    0.00    0.03
 2004 193   276    24    7.2    0.0    7.2   0.00   3.25    6.8    6.9    0.3    3.2   3.25   1.18    0.00    0.03
 2004 194   277    25    7.6    0.0    7.6   0.00   3.08    7.3    7.3    0.3    3.1   3.08   1.16    0.00    0.04
 2004 195   278    26    8.0    0.0    8.0   0.00   2.95    7.7    7.7    0.3    3.0   2.95   1.12    0.00    0.04
 2004 196   279    27    8.2    0.0    8.2   0.00   2.88    7.9    7.9    0.3    2.9   2.88   1.11    0.00    0.04
 2004 197   280    28    8.4    0.0    8.4   0.00   2.70    8.1    8.0    0.4    2.7   2.70   1.07    0.00    0.05
 2004 198   281    29    8.6    0.0    8.6   0.00   2.57    8.3    8.2    0.4    2.6   2.57   1.06    0.00    0.05
 2004 199   282    30    8.8    0.0    8.8   0.00   2.53    8.5    8.3    0.5    2.5   2.53   1.06    0.00    0.05
 2004 200   283    31    8.9    0.0    8.9   0.00   2.40    8.6    8.3    0.5    2.4   2.40   1.05    0.00    0.06
 2004 201   284    32    9.0    0.0    9.0   0.00   2.25    8.7    8.3    0.7    2.2   2.25   1.03    0.00    0.06
 2004 202   285    33    9.1    0.0    9.1   0.00   2.19    8.9    8.4    0.7    2.2   2.19   1.02    0.00    0.06
 2004 203   286    34    9.3    0.0    9.3   0.00   2.17    9.0    8.5    0.8    2.2   2.17   1.02    0.00    0.07
 2004 204   287    35    9.4    0.0    9.4   0.00   2.04    9.1    8.4    1.0    2.0   2.04   1.01    0.00    0.07
 2004 205   288    36    9.5    0.0    9.5   0.00   1.93    9.2    8.3    1.2    1.9   1.93   0.99    0.00    0.08
 2004 206   289    37    9.6    0.0    9.6   0.00   1.90    9.3    8.3    1.2    1.9   1.90   0.99    0.00    0.08
 2004 207   290    38    9.7    0.0    9.7   0.00   1.82    9.4    8.3    1.4    1.8   1.82   0.97    0.00    0.08
 2004 208   291    39    9.8    0.0    9.8   0.00   1.76    9.5    8.2    1.6    1.8   1.76   0.96    0.00    0.09
 2004 209   292    40    9.9    0.0    9.9   0.00   1.72    9.6    8.2    1.7    1.7   1.72   0.96    0.00    0.09
 2004 210   293    41   10.0    0.0   10.0   0.00   1.67    9.8    8.1    1.9    1.7   1.67   0.95    0.00    0.09
 2004 211   294    42   10.1    0.0   10.1   0.00   1.61    9.9    8.0    2.1    1.6   1.61   0.94    0.00    0.10
 2004 212   295    43   10.2    0.0   10.2   0.00   1.57    9.9    8.0    2.2    1.6   1.57   0.93    0.00    0.10
 2004 213   296    44   10.3    0.0   10.3   0.00   1.52   10.1    7.9    2.4    1.5   1.52   0.92    0.00    0.11
 2004 214   297    45   10.4    0.0   10.4   0.00   1.45   10.2    7.7    2.7    1.4   1.45   0.90    0.00    0.11
 2004 215   298    46   10.6    0.0   10.6   0.00   1.41   10.3    7.7    2.9    1.4   1.41   0.89    0.00    0.11
 2004 216   299    47   10.7    0.0   10.7   0.00   1.36   10.5    7.5    3.2    1.4   1.36   0.88    0.00    0.12
 2004 217   300    48   10.9    0.0   10.9   0.00   1.35   10.7    7.5    3.3    1.4   1.35   0.88    0.00    0.12
 2004 218   301    49   10.9    0.0   10.9   0.00   1.31   10.7    7.4    3.6    1.3   1.31   0.86    0.00    0.13
 2004 219   302    50   11.0    0.0   11.0   0.00   1.27   10.8    7.2    3.7    1.3   1.27   0.85    0.00    0.13
 2004 220   303    51   11.0    0.0   11.0   0.00   1.21   10.8    7.0    3.9    1.2   1.21   0.83    0.00    0.13
 2004 221   304    52   11.0    0.0   11.0   0.00   1.19   10.8    6.9    4.1    1.2   1.19   0.83    0.00    0.14
 2004 222   305    53   11.0    0.0   11.0   0.00   1.15   10.8    6.8    4.2    1.2   1.15   0.82    0.00    0.14
 2004 223   306    54   11.0    0.0   11.0   0.00   1.13   10.8    6.7    4.3    1.1   1.13   0.81    0.00    0.14
 2004 224   307    55   11.0    0.0   11.0   0.00   1.10   10.8    6.6    4.4    1.1   1.10   0.80    0.00    0.14
 2004 225   308    56   11.0    0.0   11.0   0.00   1.07   10.8    6.5    4.5    1.1   1.07   0.78    0.00    0.14
 2004 226   309    57   11.1    0.0   11.1   0.00   1.03   10.9    6.2    4.9    1.0   1.03   0.77    0.00    0.15
 2004 227   310    58   11.1    0.0   11.1   0.00   1.02   10.9    6.0    5.0    1.0   1.02   0.76    0.00    0.15
 2004 228   311    59   11.1    0.0   11.1   0.00   0.99   10.9    5.8    5.3    1.0   0.99   0.75    0.00    0.15
 2004 229   312    60   11.1    0.0   11.1   0.00   0.98   10.9    5.6    5.5    1.0   0.98   0.74    0.00    0.15
 2004 230   313    61   11.1    0.0   11.1   0.00   0.97   10.9    5.4    5.6    1.0   0.97   0.74    0.00    0.15
 2004 231   314    62   11.1    0.0   11.1   0.00   0.96   10.9    5.3    5.8    1.0   0.96   0.73    0.00    0.15
 2004 232   315    63   11.1    0.0   11.1   0.00   0.95   10.9    5.1    6.0    1.0   0.95   0.72    0.00    0.15
 2004 233   316    64   11.1    0.0   11.1   0.00   0.95   10.9    5.0    6.1    0.9   0.95   0.72    0.00    0.15
 2004 234   317    65   11.1    0.0   11.1   0.00   0.95   10.9    4.9    6.3    1.0   0.95   0.72    0.00    0.16
 2004 235   318    66   11.2    0.0   11.2   0.00   0.96   11.0    4.7    6.4    1.0   0.96   0.72    0.00    0.16
 2004 236   319    67   11.2    0.3   10.9   0.90   0.95   11.0    4.7    6.2    0.9   0.95   0.72    0.00    0.16
 2004 237   320    68   11.2    0.4   10.7   0.91   0.92   11.0    4.6    6.2    0.9   0.92   0.70    0.00    0.16
 2004 238   321    69   11.2    0.6   10.6   0.91   0.91   11.0    4.5    6.1    0.9   0.91   0.67    0.00    0.16
 2004 239   322    70   11.2    0.8   10.4   0.91   0.90   11.0    4.4    6.0    0.9   0.90   0.66    0.00    0.16
 2004 240   323    71   11.2    0.9   10.3   0.90   0.88   11.0    4.4    5.9    0.9   0.88   0.64    0.00    0.16
 2004 241   324    72   11.2    1.1   10.1   0.90   0.87   11.0    4.3    5.8    0.9   0.87   0.64    0.00    0.16
 2004 242   325    73   11.2    1.3    9.9   0.90   0.85   11.0    4.2    5.7    0.9   0.85   0.62    0.00    0.16
 2004 243   326    74   11.2    1.4    9.8   0.90   0.84   11.0    4.1    5.6    0.8   0.84   0.60    0.00    0.17
 2004 244   327    75   11.2    1.6    9.6   0.90   0.83   11.1    4.1    5.5    0.8   0.83   0.60    0.00    0.17
 2004 245   328    76   11.2    1.7    9.5   0.90   0.82   11.1    4.0    5.5    0.8   0.82   0.60    0.00    0.17
 2004 246   329    77   11.2    1.9    9.3   0.90   0.81   11.1    4.0    5.4    0.8   0.81   0.60    0.00    0.18
 2004 247   330    78   11.2    2.1    9.2   0.89   0.79   11.1    3.9    5.3    0.8   0.79   0.59    0.00    0.18
 2004 248   331    79   11.2    2.2    9.0   0.89   0.78   11.1    3.8    5.2    0.8   0.78   0.59    0.00    0.18
 2004 249   332    80   11.2    2.4    8.9   0.89   0.76   11.1    3.8    5.1    0.8   0.76   0.57    0.00    0.18
 2004 250   333    81   11.2    2.5    8.7   0.89   0.75   11.1    3.7    5.0    0.7   0.75   0.57    0.00    0.18
 2004 251   334    82   11.2    2.7    8.6   0.89   0.74   11.1    3.6    4.9    0.7   0.74   0.58    0.00    0.18
 2004 252   335    83   11.2    2.8    8.4   0.88   0.72   11.1    3.6    4.8    0.7   0.72   0.57    0.00    0.18
 2004 253   336    84   11.3    3.0    8.3   0.88   0.71   11.2    3.5    4.8    0.7   0.71   0.58    0.00    0.18
 2004 254   337    85   11.3    3.2    8.2   0.88   0.71   11.2    3.5    4.7    0.7   0.71   0.58    0.00    0.19
 2004 255   338    86   11.4    3.3    8.1   0.88   0.70   11.3    3.5    4.6    0.7   0.70   0.59    0.00    0.19
 2004 256   339    87   11.5    3.5    8.0   0.88   0.70   11.4    3.4    4.6    0.7   0.70   0.60    0.00    0.20
 2004 257   340    88   11.5    3.6    7.9   0.88   0.69   11.5    3.4    4.5    0.7   0.69   0.60    0.00    0.20
 2004 258   341    89   11.6    3.8    7.8   0.87   0.68   11.5    3.3    4.5    0.7   0.68   0.60    0.00    0.20
 2004 259   342    90   11.6    3.9    7.7   0.87   0.67   11.5    3.3    4.4    0.7   0.67   0.61    0.00    0.21
 2004 260   343    91   11.6    4.1    7.5   0.87   0.66   11.5    3.2    4.3    0.7   0.66   0.61    0.00    0.21
 2004 261   344    92   11.6    4.2    7.4   0.87   0.64   11.5    3.2    4.2    0.6   0.64   0.62    0.00    0.21
 2004 262   345    93   11.6    4.4    7.3   0.87   0.63   11.5    3.1    4.1    0.6   0.63   0.61    0.00    0.21
 2004 263   346    94   11.6    4.5    7.1   0.87   0.62   11.5    3.1    4.1    0.6   0.62   0.61    0.00    0.21
 2004 264   347    95   11.6    4.6    7.0   0.87   0.61   11.5    3.0    4.0    0.6   0.61   0.62    0.00    0.21
 2004 265   348    96   11.6    4.8    6.8   0.86   0.60   11.6    3.0    3.9    0.6   0.60   0.62    0.00    0.22
 2004 266   349    97   11.6    4.9    6.7   0.86   0.59   11.6    2.9    3.8    0.6   0.59   0.62    0.00    0.22
 2004 267   350    98   11.6    4.9    6.7   0.86   0.59   11.6    2.9    3.8    0.6   0.59   0.62    0.00    0.22
 2004 268   351    99   11.6    4.9    6.7   0.86   0.59   11.6    2.9    3.8    0.6   0.59   0.62    0.00    0.22
 2004 269   352   100   11.6    4.9    6.7   0.86   0.59   11.6    2.9    3.8    0.6   0.59   0.62    0.00    0.22
 2004 270   353   101   11.6    4.9    6.7   0.86   0.59   11.6    2.9    3.8    0.6   0.59   0.62    0.00    0.22
 2004 271   354   102   11.6    4.9    6.7   0.86   0.59   11.6    2.9    3.8    0.6   0.59   0.62    0.00    0.22
 2004 272   355   103   11.6    4.9    6.7   0.86   0.59   11.6    2.9    3.8    0.6   0.59   0.62    0.00    0.22
 2004 273   356   104   11.6    4.9    6.7   0.86   0.59   11.6    2.9    3.8    0.6   0.59   0.62    0.00    0.22
 2004 274   357   105   11.6    4.9    6.7   0.86   0.59   11.6    2.9    3.8    0.6   0.59   0.62    0.00    0.22
 2004 275   358   106   11.6    4.9    6.7   0.86   0.59   11.6    2.9    3.8    0.6   0.59   0.62    0.00    0.22
 2004 276   359   107   11.6    4.9    6.7   0.86   0.59   11.6    2.9    3.8    0.6   0.59   0.62    0.00    0.22
 2004 277   360   108   11.6    4.9    6.7   0.86   0.59   11.6    2.9    3.8    0.6   0.59   0.62    0.00    0.22
 2004 278   361   109   11.6    4.9    6.7   0.86   0.59   11.6    2.9    3.8    0.6   0.59   0.62    0.00    0.22
 2004 279   362   110   11.6    4.9    6.7   0.86   0.59   11.6    2.9    3.8    0.6   0.59   0.62    0.00    0.22
 2004 280   363   111   11.6    4.9    6.7   0.86   0.59   11.6    2.9    3.8    0.6   0.59   0.62    0.00    0.22
 2004 281   364   112   11.6    4.9    6.7   0.86   0.59   11.6    2.9    3.8    0.6   0.59   0.62    0.00    0.22
 2004 282   365   113   11.6    4.9    6.7   0.86   0.59   11.6    2.9    3.8    0.6   0.59   0.62    0.00    0.22
 2004 283   366   114   11.6    4.9    6.7   0.86   0.59   11.6    2.9    3.8    0.6   0.59   0.62    0.00    0.22
 2004 284   367   115   11.6    4.9    6.7   0.86   0.59   11.6    2.9    3.8    0.6   0.59   0.62    0.00    0.22
 2004 285   368   116   11.6    4.9    6.7   0.86   0.59   11.6    2.9    3.8    0.6   0.59   0.62    0.00    0.22
 2004 286   369   117   11.6    4.9    6.7   0.86   0.59   11.6    2.9    3.8    0.6   0.59   0.62    0.00    0.22
 2004 287   370   118   11.6    4.9    6.7   0.86   0.59   11.6    2.9    3.8    0.6   0.59   0.62    0.00    0.22
 2004 288   371   119   11.6    4.9    6.7   0.86   0.59   11.6    2.9    3.8    0.6   0.59   0.62    0.00    0.22
 2004 289   372   120   11.6    4.9    6.7   0.86   0.59   11.6    2.9    3.8    0.6   0.59   0.62    0.00    0.22
 2004 290   373   121   11.6    4.9    6.7   0.86   0.59   11.6    2.9    3.8    0.6   0.59   0.62    0.00    0.22
 2004 291   374   122   11.6    4.9    6.7   0.86   0.59   11.6    2.9    3.8    0.6   0.59   0.62    0.00    0.22
 2004 292   375   123   11.6    4.9    6.7   0.86   0.59   11.6    2.9    3.8    0.6   0.59   0.62    0.00    0.22
 2004 293   376   124   11.6    4.9    6.7   0.86   0.59   11.6    2.9    3.8    0.6   0.59   0.62    0.00    0.22
 2004 294   377   125   11.6    4.9    6.7   0.86   0.59   11.6    2.9    3.8    0.6   0.59   0.62    0.00    0.22

*DSSAT Cropping System Model Ver. 4.5.1.023 -Stub         DEC 04, 2014; 01:35:45
                                                                                
*RUN   2        : N0 P60                    MZCER045 GHWA0401    2              
 MODEL          : MZCER045 - Maize                                              
 EXPERIMENT     : GHWA0401 MZ ON-STATION NXP (EXPERIMENT NO.2) 9 TRT            
 DATA PATH      :                                                               
 TREATMENT  2   : N0 P60                    MZCER045                            
  
@YEAR DOY   DAS   DAP   CNAD   GNAD   VNAD   GN%D   VN%D   NUPC   LNAD   SNAD   LN%D   SN%D   RN%D   SNN0C   SNN1C
 2004 169   252     0    0.0    0.0    0.0   0.00   0.00    0.0    0.0    0.0    0.0   0.00   0.00    0.00    0.00
 2004 170   253     1    0.0    0.0    0.0   0.00   0.00    0.0    0.0    0.0    0.0   0.00   0.00    0.00    0.00
 2004 171   254     2    0.0    0.0    0.0   0.00   0.00    0.0    0.0    0.0    0.0   0.00   0.00    0.00    0.00
 2004 172   255     3    0.0    0.0    0.0   0.00   0.00    0.0    0.0    0.0    0.0   0.00   0.00    0.00    0.00
 2004 173   256     4    0.0    0.0    0.0   0.00   0.00    0.0    0.0    0.0    0.0   0.00   0.00    0.00    0.00
 2004 174   257     5    0.9    0.0    0.9   0.00   4.40    0.0    0.4    0.4    4.4   4.40   2.20    0.00    0.00
 2004 175   258     6    0.9    0.0    0.9   0.00   4.40    0.0    0.4    0.4    4.4   4.40   2.11    0.00    0.00
 2004 176   259     7    0.9    0.0    0.9   0.00   4.40    0.0    0.4    0.4    4.4   4.40   1.94    0.00    0.00
 2004 177   260     8    0.9    0.0    0.9   0.00   4.40    0.0    0.4    0.4    4.4   4.40   1.74    0.00    0.00
 2004 178   261     9    0.9    0.0    0.9   0.00   3.68    0.0    0.5    0.4    3.7   3.68   1.63    0.00    0.00
 2004 179   262    10    1.0    0.0    1.0   0.00   3.35    0.1    0.7    0.3    3.3   3.35   1.26    0.00    0.00
 2004 180   263    11    1.3    0.0    1.3   0.00   3.41    0.4    1.0    0.3    3.4   3.41   1.16    0.00    0.00
 2004 181   264    12    1.6    0.0    1.6   0.00   3.46    0.8    1.3    0.3    3.5   3.46   1.25    0.00    0.00
 2004 182   265    13    2.0    0.0    2.0   0.00   3.14    1.1    1.6    0.3    3.1   3.14   1.17    0.00    0.00
 2004 183   266    14    2.6    0.0    2.6   0.00   3.14    1.9    2.2    0.3    3.1   3.14   1.33    0.00    0.01
 2004 184   267    15    3.3    0.0    3.3   0.00   3.16    2.7    3.0    0.3    3.2   3.16   1.23    0.00    0.01
 2004 185   268    16    4.3    0.0    4.3   0.00   3.55    3.6    3.9    0.4    3.6   3.55   1.14    0.00    0.01
 2004 186   269    17    4.8    0.0    4.8   0.00   3.01    4.2    4.5    0.3    3.0   3.01   1.23    0.00    0.01
 2004 187   270    18    6.1    0.0    6.1   0.00   2.94    5.6    5.8    0.3    2.9   2.94   1.21    0.00    0.01
 2004 188   271    19    7.1    0.0    7.1   0.00   2.61    6.7    6.8    0.3    2.6   2.61   1.12    0.00    0.02
 2004 189   272    20    7.9    0.0    7.9   0.00   2.69    7.7    7.6    0.3    2.7   2.69   0.94    0.00    0.02
 2004 190   273    21    8.7    0.0    8.7   0.00   2.61    8.6    8.4    0.3    2.6   2.61   0.91    0.00    0.03
 2004 191   274    22    9.2    0.0    9.2   0.00   2.41    9.2    9.0    0.2    2.4   2.41   0.81    0.00    0.03
 2004 192   275    23   10.0    0.0   10.0   0.00   2.34   10.1    9.8    0.2    2.3   2.34   0.78    0.00    0.04
 2004 193   276    24   10.6    0.0   10.6   0.00   2.24   10.8   10.4    0.2    2.2   2.24   0.73    0.00    0.04
 2004 194   277    25   11.0    0.0   11.0   0.00   2.08   11.2   10.8    0.2    2.1   2.08   0.67    0.00    0.05
 2004 195   278    26   11.3    0.0   11.3   0.00   1.93   11.6   11.1    0.2    1.9   1.93   0.56    0.00    0.05
 2004 196   279    27   11.4    0.0   11.4   0.00   1.81   11.8   11.2    0.3    1.8   1.81   0.53    0.00    0.06
 2004 197   280    28   11.5    0.0   11.5   0.00   1.70   11.9   11.2    0.3    1.7   1.70   0.47    0.00    0.07
 2004 198   281    29   11.7    0.0   11.7   0.00   1.60   12.1   11.3    0.4    1.6   1.60   0.44    0.00    0.07
 2004 199   282    30   11.8    0.0   11.8   0.00   1.54   12.2   11.3    0.5    1.5   1.54   0.43    0.00    0.08
 2004 200   283    31   11.9    0.0   11.9   0.00   1.46   12.3   11.3    0.5    1.5   1.46   0.41    0.00    0.09
 2004 201   284    32   11.9    0.0   11.9   0.00   1.38   12.4   11.2    0.7    1.4   1.38   0.37    0.00    0.10
 2004 202   285    33   12.0    0.0   12.0   0.00   1.33   12.5   11.2    0.8    1.3   1.33   0.36    0.00    0.10
 2004 203   286    34   12.2    0.0   12.2   0.00   1.29   12.7   11.2    0.9    1.3   1.29   0.37    0.00    0.11
 2004 204   287    35   12.2    0.0   12.2   0.00   1.24   12.7   11.1    1.1    1.2   1.24   0.35    0.00    0.12
 2004 205   288    36   12.3    0.0   12.3   0.00   1.19   12.8   11.0    1.2    1.2   1.19   0.33    0.00    0.13
 2004 206   289    37   12.4    0.0   12.4   0.00   1.15   12.9   11.0    1.4    1.2   1.15   0.33    0.00    0.13
 2004 207   290    38   12.4    0.0   12.4   0.00   1.11   13.0   10.8    1.6    1.1   1.11   0.32    0.00    0.14
 2004 208   291    39   12.5    0.0   12.5   0.00   1.07   13.1   10.7    1.8    1.1   1.07   0.31    0.00    0.15
 2004 209   292    40   12.6    0.0   12.6   0.00   1.03   13.2   10.6    2.0    1.0   1.03   0.31    0.00    0.16
 2004 210   293    41   12.7    0.0   12.7   0.00   1.00   13.3   10.5    2.2    1.0   1.00   0.31    0.00    0.16
 2004 211   294    42   12.7    0.0   12.7   0.00   0.96   13.4   10.3    2.4    1.0   0.96   0.31    0.00    0.17
 2004 212   295    43   12.8    0.0   12.8   0.00   0.93   13.5   10.2    2.6    0.9   0.93   0.31    0.00    0.18
 2004 213   296    44   12.9    0.0   12.9   0.00   0.90   13.6   10.1    2.8    0.9   0.90   0.31    0.00    0.19
 2004 214   297    45   13.0    0.0   13.0   0.00   0.87   13.7   10.0    3.0    0.9   0.87   0.31    0.00    0.20
 2004 215   298    46   13.1    0.0   13.1   0.00   0.85   13.9    9.9    3.2    0.9   0.85   0.31    0.00    0.20
 2004 216   299    47   13.2    0.0   13.2   0.00   0.83   14.0    9.8    3.4    0.8   0.83   0.31    0.00    0.21
 2004 217   300    48   13.5    0.0   13.5   0.00   0.83   14.3    9.8    3.6    0.8   0.83   0.31    0.00    0.22
 2004 218   301    49   13.6    0.0   13.6   0.00   0.81   14.4    9.8    3.8    0.8   0.81   0.31    0.00    0.23
 2004 219   302    50   13.6    0.0   13.6   0.00   0.80   14.4    9.6    4.0    0.8   0.80   0.31    0.00    0.24
 2004 220   303    51   13.6    0.0   13.6   0.00   0.78   14.4    9.5    4.1    0.8   0.78   0.31    0.00    0.25
 2004 221   304    52   13.6    0.0   13.6   0.00   0.77   14.5    9.4    4.2    0.8   0.77   0.31    0.00    0.26
 2004 222   305    53   13.6    0.0   13.6   0.00   0.75   14.5    9.3    4.3    0.8   0.75   0.31    0.00    0.26
 2004 223   306    54   13.6    0.0   13.6   0.00   0.74   14.5    9.3    4.3    0.7   0.74   0.31    0.00    0.26
 2004 224   307    55   13.6    0.0   13.6   0.00   0.74   14.5    9.2    4.4    0.7   0.74   0.31    0.00    0.26
 2004 225   308    56   13.6    0.0   13.6   0.00   0.73   14.5    9.2    4.4    0.7   0.73   0.31    0.00    0.26
 2004 226   309    57   13.7    0.0   13.7   0.00   0.72   14.6    9.0    4.7    0.7   0.72   0.31    0.00    0.26
 2004 227   310    58   13.7    0.0   13.7   0.00   0.71   14.6    8.8    4.9    0.7   0.71   0.31    0.00    0.26
 2004 228   311    59   13.7    0.0   13.7   0.00   0.70   14.6    8.5    5.2    0.7   0.70   0.31    0.00    0.26
 2004 229   312    60   13.7    0.0   13.7   0.00   0.69   14.6    8.3    5.4    0.7   0.69   0.31    0.00    0.26
 2004 230   313    61   13.7    0.0   13.7   0.00   0.69   14.6    8.1    5.6    0.7   0.69   0.31    0.00    0.26
 2004 231   314    62   13.7    0.0   13.7   0.00   0.69   14.6    7.9    5.7    0.7   0.69   0.31    0.00    0.26
 2004 232   315    63   13.7    0.0   13.7   0.00   0.68   14.6    7.7    6.0    0.7   0.68   0.31    0.00    0.26
 2004 233   316    64   13.7    0.0   13.7   0.00   0.68   14.6    7.6    6.2    0.7   0.68   0.31    0.00    0.27
 2004 234   317    65   13.7    0.0   13.7   0.00   0.69   14.6    7.4    6.3    0.7   0.69   0.32    0.00    0.28
 2004 235   318    66   13.8    0.0   13.8   0.00   0.69   14.7    7.3    6.5    0.7   0.69   0.32    0.00    0.29
 2004 236   319    67   13.8    0.2   13.6   0.63   0.69   14.7    7.2    6.4    0.7   0.69   0.32    0.00    0.29
 2004 237   320    68   13.8    0.3   13.5   0.63   0.68   14.7    7.1    6.4    0.7   0.68   0.32    0.00    0.29
 2004 238   321    69   13.8    0.4   13.4   0.63   0.67   14.7    7.1    6.3    0.7   0.67   0.32    0.00    0.29
 2004 239   322    70   13.8    0.4   13.4   0.63   0.67   14.7    7.1    6.3    0.7   0.67   0.31    0.00    0.29
 2004 240   323    71   13.8    0.5   13.3   0.63   0.67   14.7    7.0    6.3    0.7   0.67   0.31    0.00    0.29
 2004 241   324    72   13.8    0.6   13.2   0.64   0.66   14.7    7.0    6.2    0.7   0.66   0.31    0.00    0.29
 2004 242   325    73   13.8    0.7   13.1   0.64   0.66   14.7    6.9    6.2    0.7   0.66   0.31    0.00    0.29
 2004 243   326    74   13.8    0.7   13.1   0.64   0.66   14.8    6.9    6.2    0.7   0.66   0.31    0.00    0.30
 2004 244   327    75   13.9    0.8   13.0   0.64   0.65   14.8    6.9    6.1    0.7   0.65   0.31    0.00    0.31
 2004 245   328    76   13.9    0.9   13.0   0.64   0.65   14.8    6.9    6.1    0.7   0.65   0.31    0.00    0.31
 2004 246   329    77   13.9    1.0   12.9   0.64   0.65   14.8    6.8    6.1    0.6   0.65   0.31    0.00    0.32
 2004 247   330    78   13.9    1.1   12.8   0.64   0.64   14.8    6.8    6.0    0.6   0.64   0.31    0.00    0.32
 2004 248   331    79   13.9    1.1   12.8   0.65   0.64   14.8    6.7    6.0    0.6   0.64   0.31    0.00    0.32
 2004 249   332    80   13.9    1.2   12.7   0.65   0.64   14.8    6.7    6.0    0.6   0.64   0.31    0.00    0.32
 2004 250   333    81   13.9    1.3   12.6   0.65   0.63   14.8    6.7    5.9    0.6   0.63   0.31    0.00    0.32
 2004 251   334    82   13.9    1.4   12.5   0.65   0.63   14.8    6.6    5.9    0.6   0.63   0.31    0.00    0.32
 2004 252   335    83   13.9    1.4   12.4   0.65   0.62   14.9    6.6    5.9    0.6   0.62   0.31    0.00    0.32
 2004 253   336    84   13.9    1.5   12.4   0.65   0.62   14.9    6.6    5.8    0.6   0.62   0.31    0.00    0.33
 2004 254   337    85   14.0    1.6   12.4   0.66   0.62   15.0    6.5    5.8    0.6   0.62   0.32    0.00    0.34
 2004 255   338    86   14.0    1.7   12.3   0.66   0.62   15.1    6.5    5.8    0.6   0.62   0.32    0.00    0.35
 2004 256   339    87   14.1    1.8   12.3   0.66   0.62   15.2    6.5    5.8    0.6   0.62   0.33    0.00    0.36
 2004 257   340    88   14.2    1.8   12.3   0.66   0.62   15.3    6.5    5.8    0.6   0.62   0.33    0.00    0.37
 2004 258   341    89   14.2    1.9   12.2   0.66   0.61   15.3    6.5    5.8    0.6   0.61   0.33    0.00    0.38
 2004 259   342    90   14.2    2.0   12.2   0.67   0.61   15.3    6.4    5.7    0.6   0.61   0.33    0.00    0.39
 2004 260   343    91   14.2    2.1   12.1   0.67   0.61   15.3    6.4    5.7    0.6   0.61   0.33    0.00    0.39
 2004 261   344    92   14.2    2.2   12.0   0.67   0.60   15.3    6.3    5.7    0.6   0.60   0.33    0.00    0.39
 2004 262   345    93   14.2    2.3   11.9   0.67   0.60   15.3    6.3    5.6    0.6   0.60   0.33    0.00    0.39
 2004 263   346    94   14.2    2.3   11.8   0.67   0.59   15.3    6.3    5.6    0.6   0.59   0.34    0.00    0.39
 2004 264   347    95   14.2    2.4   11.8   0.68   0.59   15.3    6.2    5.5    0.6   0.59   0.34    0.00    0.40
 2004 265   348    96   14.2    2.5   11.7   0.68   0.59   15.4    6.2    5.5    0.6   0.59   0.34    0.00    0.41
 2004 266   349    97   14.2    2.6   11.6   0.68   0.58   15.4    6.1    5.5    0.6   0.58   0.34    0.00    0.41
 2004 267   350    98   14.2    2.6   11.6   0.68   0.58   15.4    6.1    5.5    0.6   0.58   0.34    0.00    0.41
 2004 268   351    99   14.2    2.6   11.6   0.68   0.58   15.4    6.1    5.5    0.6   0.58   0.34    0.00    0.41
 2004 269   352   100   14.2    2.6   11.6   0.68   0.58   15.4    6.1    5.5    0.6   0.58   0.34    0.00    0.41
 2004 270   353   101   14.2    2.6   11.6   0.68   0.58   15.4    6.1    5.5    0.6   0.58   0.34    0.00    0.41
 2004 271   354   102   14.2    2.6   11.6   0.68   0.58   15.4    6.1    5.5    0.6   0.58   0.34    0.00    0.41
 2004 272   355   103   14.2    2.6   11.6   0.68   0.58   15.4    6.1    5.5    0.6   0.58   0.34    0.00    0.41
 2004 273   356   104   14.2    2.6   11.6   0.68   0.58   15.4    6.1    5.5    0.6   0.58   0.34    0.00    0.41
 2004 274   357   105   14.2    2.6   11.6   0.68   0.58   15.4    6.1    5.5    0.6   0.58   0.34    0.00    0.41
 2004 275   358   106   14.2    2.6   11.6   0.68   0.58   15.4    6.1    5.5    0.6   0.58   0.34    0.00    0.41
 2004 276   359   107   14.2    2.6   11.6   0.68   0.58   15.4    6.1    5.5    0.6   0.58   0.34    0.00    0.41
 2004 277   360   108   14.2    2.6   11.6   0.68   0.58   15.4    6.1    5.5    0.6   0.58   0.34    0.00    0.41
 2004 278   361   109   14.2    2.6   11.6   0.68   0.58   15.4    6.1    5.5    0.6   0.58   0.34    0.00    0.41
 2004 279   362   110   14.2    2.6   11.6   0.68   0.58   15.4    6.1    5.5    0.6   0.58   0.34    0.00    0.41
 2004 280   363   111   14.2    2.6   11.6   0.68   0.58   15.4    6.1    5.5    0.6   0.58   0.34    0.00    0.41
 2004 281   364   112   14.2    2.6   11.6   0.68   0.58   15.4    6.1    5.5    0.6   0.58   0.34    0.00    0.41
 2004 282   365   113   14.2    2.6   11.6   0.68   0.58   15.4    6.1    5.5    0.6   0.58   0.34    0.00    0.41
 2004 283   366   114   14.2    2.6   11.6   0.68   0.58   15.4    6.1    5.5    0.6   0.58   0.34    0.00    0.41
 2004 284   367   115   14.2    2.6   11.6   0.68   0.58   15.4    6.1    5.5    0.6   0.58   0.34    0.00    0.41
 2004 285   368   116   14.2    2.6   11.6   0.68   0.58   15.4    6.1    5.5    0.6   0.58   0.34    0.00    0.41
 2004 286   369   117   14.2    2.6   11.6   0.68   0.58   15.4    6.1    5.5    0.6   0.58   0.34    0.00    0.41
 2004 287   370   118   14.2    2.6   11.6   0.68   0.58   15.4    6.1    5.5    0.6   0.58   0.34    0.00    0.41
 2004 288   371   119   14.2    2.6   11.6   0.68   0.58   15.4    6.1    5.5    0.6   0.58   0.34    0.00    0.41
 2004 289   372   120   14.2    2.6   11.6   0.68   0.58   15.4    6.1    5.5    0.6   0.58   0.34    0.00    0.41
 2004 290   373   121   14.2    2.6   11.6   0.68   0.58   15.4    6.1    5.5    0.6   0.58   0.34    0.00    0.41
 2004 291   374   122   14.2    2.6   11.6   0.68   0.58   15.4    6.1    5.5    0.6   0.58   0.34    0.00    0.41
 2004 292   375   123   14.2    2.6   11.6   0.68   0.58   15.4    6.1    5.5    0.6   0.58   0.34    0.00    0.41
 2004 293   376   124   14.2    2.6   11.6   0.68   0.58   15.4    6.1    5.5    0.6   0.58   0.34    0.00    0.41
 2004 294   377   125   14.2    2.6   11.6   0.68   0.58   15.4    6.1    5.5    0.6   0.58   0.34    0.00    0.41

*DSSAT Cropping System Model Ver. 4.5.1.023 -Stub         DEC 04, 2014; 01:35:45
                                                                                
*RUN   3        : N0 P90                    MZCER045 GHWA0401    3              
 MODEL          : MZCER045 - Maize                                              
 EXPERIMENT     : GHWA0401 MZ ON-STATION NXP (EXPERIMENT NO.2) 9 TRT            
 DATA PATH      :                                                               
 TREATMENT  3   : N0 P90                    MZCER045                            
  
@YEAR DOY   DAS   DAP   CNAD   GNAD   VNAD   GN%D   VN%D   NUPC   LNAD   SNAD   LN%D   SN%D   RN%D   SNN0C   SNN1C
 2004 169   252     0    0.0    0.0    0.0   0.00   0.00    0.0    0.0    0.0    0.0   0.00   0.00    0.00    0.00
 2004 170   253     1    0.0    0.0    0.0   0.00   0.00    0.0    0.0    0.0    0.0   0.00   0.00    0.00    0.00
 2004 171   254     2    0.0    0.0    0.0   0.00   0.00    0.0    0.0    0.0    0.0   0.00   0.00    0.00    0.00
 2004 172   255     3    0.0    0.0    0.0   0.00   0.00    0.0    0.0    0.0    0.0   0.00   0.00    0.00    0.00
 2004 173   256     4    0.0    0.0    0.0   0.00   0.00    0.0    0.0    0.0    0.0   0.00   0.00    0.00    0.00
 2004 174   257     5    0.9    0.0    0.9   0.00   4.40    0.0    0.4    0.4    4.4   4.40   2.20    0.00    0.00
 2004 175   258     6    0.9    0.0    0.9   0.00   4.40    0.0    0.4    0.4    4.4   4.40   2.11    0.00    0.00
 2004 176   259     7    0.9    0.0    0.9   0.00   4.40    0.0    0.4    0.4    4.4   4.40   1.94    0.00    0.00
 2004 177   260     8    0.9    0.0    0.9   0.00   4.40    0.0    0.4    0.4    4.4   4.40   1.74    0.00    0.00
 2004 178   261     9    0.9    0.0    0.9   0.00   3.68    0.0    0.5    0.4    3.7   3.68   1.63    0.00    0.00
 2004 179   262    10    1.0    0.0    1.0   0.00   3.35    0.1    0.7    0.3    3.3   3.35   1.26    0.00    0.00
 2004 180   263    11    1.3    0.0    1.3   0.00   3.41    0.4    1.0    0.3    3.4   3.41   1.16    0.00    0.00
 2004 181   264    12    1.6    0.0    1.6   0.00   3.46    0.8    1.3    0.3    3.5   3.46   1.25    0.00    0.00
 2004 182   265    13    2.0    0.0    2.0   0.00   3.14    1.1    1.6    0.3    3.1   3.14   1.17    0.00    0.00
 2004 183   266    14    2.6    0.0    2.6   0.00   3.14    1.9    2.2    0.3    3.1   3.14   1.33    0.00    0.01
 2004 184   267    15    3.3    0.0    3.3   0.00   3.16    2.7    3.0    0.3    3.2   3.16   1.23    0.00    0.01
 2004 185   268    16    4.3    0.0    4.3   0.00   3.55    3.6    3.9    0.4    3.6   3.55   1.14    0.00    0.01
 2004 186   269    17    4.8    0.0    4.8   0.00   3.01    4.2    4.5    0.3    3.0   3.01   1.23    0.00    0.01
 2004 187   270    18    6.1    0.0    6.1   0.00   2.94    5.6    5.8    0.3    2.9   2.94   1.21    0.00    0.01
 2004 188   271    19    7.1    0.0    7.1   0.00   2.61    6.7    6.8    0.3    2.6   2.61   1.12    0.00    0.02
 2004 189   272    20    7.9    0.0    7.9   0.00   2.69    7.7    7.6    0.3    2.7   2.69   0.94    0.00    0.02
 2004 190   273    21    8.7    0.0    8.7   0.00   2.61    8.6    8.4    0.3    2.6   2.61   0.91    0.00    0.03
 2004 191   274    22    9.2    0.0    9.2   0.00   2.41    9.2    9.0    0.2    2.4   2.41   0.81    0.00    0.03
 2004 192   275    23   10.0    0.0   10.0   0.00   2.34   10.1    9.8    0.2    2.3   2.34   0.78    0.00    0.04
 2004 193   276    24   10.6    0.0   10.6   0.00   2.24   10.8   10.4    0.2    2.2   2.24   0.73    0.00    0.04
 2004 194   277    25   11.0    0.0   11.0   0.00   2.08   11.2   10.8    0.2    2.1   2.08   0.67    0.00    0.05
 2004 195   278    26   11.3    0.0   11.3   0.00   1.93   11.6   11.1    0.2    1.9   1.93   0.56    0.00    0.05
 2004 196   279    27   11.4    0.0   11.4   0.00   1.81   11.8   11.2    0.3    1.8   1.81   0.53    0.00    0.06
 2004 197   280    28   11.5    0.0   11.5   0.00   1.70   11.9   11.2    0.3    1.7   1.70   0.47    0.00    0.07
 2004 198   281    29   11.7    0.0   11.7   0.00   1.60   12.1   11.3    0.4    1.6   1.60   0.44    0.00    0.07
 2004 199   282    30   11.8    0.0   11.8   0.00   1.54   12.2   11.3    0.5    1.5   1.54   0.43    0.00    0.08
 2004 200   283    31   11.9    0.0   11.9   0.00   1.46   12.3   11.3    0.5    1.5   1.46   0.41    0.00    0.09
 2004 201   284    32   11.9    0.0   11.9   0.00   1.38   12.4   11.2    0.7    1.4   1.38   0.37    0.00    0.10
 2004 202   285    33   12.0    0.0   12.0   0.00   1.33   12.5   11.2    0.8    1.3   1.33   0.36    0.00    0.10
 2004 203   286    34   12.2    0.0   12.2   0.00   1.29   12.7   11.2    0.9    1.3   1.29   0.37    0.00    0.11
 2004 204   287    35   12.2    0.0   12.2   0.00   1.24   12.7   11.1    1.1    1.2   1.24   0.35    0.00    0.12
 2004 205   288    36   12.3    0.0   12.3   0.00   1.19   12.8   11.0    1.2    1.2   1.19   0.33    0.00    0.13
 2004 206   289    37   12.4    0.0   12.4   0.00   1.15   12.9   11.0    1.4    1.2   1.15   0.33    0.00    0.13
 2004 207   290    38   12.4    0.0   12.4   0.00   1.11   13.0   10.8    1.6    1.1   1.11   0.32    0.00    0.14
 2004 208   291    39   12.5    0.0   12.5   0.00   1.07   13.1   10.7    1.8    1.1   1.07   0.31    0.00    0.15
 2004 209   292    40   12.6    0.0   12.6   0.00   1.03   13.2   10.6    2.0    1.0   1.03   0.31    0.00    0.16
 2004 210   293    41   12.7    0.0   12.7   0.00   1.00   13.3   10.5    2.2    1.0   1.00   0.31    0.00    0.16
 2004 211   294    42   12.7    0.0   12.7   0.00   0.96   13.4   10.3    2.4    1.0   0.96   0.31    0.00    0.17
 2004 212   295    43   12.8    0.0   12.8   0.00   0.93   13.5   10.2    2.6    0.9   0.93   0.31    0.00    0.18
 2004 213   296    44   12.9    0.0   12.9   0.00   0.90   13.6   10.1    2.8    0.9   0.90   0.31    0.00    0.19
 2004 214   297    45   13.0    0.0   13.0   0.00   0.87   13.7   10.0    3.0    0.9   0.87   0.31    0.00    0.20
 2004 215   298    46   13.1    0.0   13.1   0.00   0.85   13.9    9.9    3.2    0.9   0.85   0.31    0.00    0.20
 2004 216   299    47   13.2    0.0   13.2   0.00   0.83   14.0    9.8    3.4    0.8   0.83   0.31    0.00    0.21
 2004 217   300    48   13.5    0.0   13.5   0.00   0.83   14.3    9.8    3.6    0.8   0.83   0.31    0.00    0.22
 2004 218   301    49   13.6    0.0   13.6   0.00   0.81   14.4    9.8    3.8    0.8   0.81   0.31    0.00    0.23
 2004 219   302    50   13.6    0.0   13.6   0.00   0.80   14.4    9.6    4.0    0.8   0.80   0.31    0.00    0.24
 2004 220   303    51   13.6    0.0   13.6   0.00   0.78   14.4    9.5    4.1    0.8   0.78   0.31    0.00    0.25
 2004 221   304    52   13.6    0.0   13.6   0.00   0.77   14.5    9.4    4.2    0.8   0.77   0.31    0.00    0.26
 2004 222   305    53   13.6    0.0   13.6   0.00   0.75   14.5    9.3    4.3    0.8   0.75   0.31    0.00    0.26
 2004 223   306    54   13.6    0.0   13.6   0.00   0.74   14.5    9.3    4.3    0.7   0.74   0.31    0.00    0.26
 2004 224   307    55   13.6    0.0   13.6   0.00   0.74   14.5    9.2    4.4    0.7   0.74   0.31    0.00    0.26
 2004 225   308    56   13.6    0.0   13.6   0.00   0.73   14.5    9.2    4.4    0.7   0.73   0.31    0.00    0.26
 2004 226   309    57   13.7    0.0   13.7   0.00   0.72   14.6    9.0    4.7    0.7   0.72   0.31    0.00    0.26
 2004 227   310    58   13.7    0.0   13.7   0.00   0.71   14.6    8.8    4.9    0.7   0.71   0.31    0.00    0.26
 2004 228   311    59   13.7    0.0   13.7   0.00   0.70   14.6    8.5    5.2    0.7   0.70   0.31    0.00    0.26
 2004 229   312    60   13.7    0.0   13.7   0.00   0.69   14.6    8.3    5.4    0.7   0.69   0.31    0.00    0.26
 2004 230   313    61   13.7    0.0   13.7   0.00   0.69   14.6    8.1    5.6    0.7   0.69   0.31    0.00    0.26
 2004 231   314    62   13.7    0.0   13.7   0.00   0.69   14.6    7.9    5.7    0.7   0.69   0.31    0.00    0.26
 2004 232   315    63   13.7    0.0   13.7   0.00   0.68   14.6    7.7    6.0    0.7   0.68   0.31    0.00    0.26
 2004 233   316    64   13.7    0.0   13.7   0.00   0.68   14.6    7.6    6.2    0.7   0.68   0.31    0.00    0.27
 2004 234   317    65   13.7    0.0   13.7   0.00   0.69   14.6    7.4    6.3    0.7   0.69   0.32    0.00    0.28
 2004 235   318    66   13.8    0.0   13.8   0.00   0.69   14.7    7.3    6.5    0.7   0.69   0.32    0.00    0.29
 2004 236   319    67   13.8    0.2   13.6   0.63   0.69   14.7    7.2    6.4    0.7   0.69   0.32    0.00    0.29
 2004 237   320    68   13.8    0.3   13.5   0.63   0.68   14.7    7.1    6.4    0.7   0.68   0.32    0.00    0.29
 2004 238   321    69   13.8    0.4   13.4   0.63   0.67   14.7    7.1    6.3    0.7   0.67   0.32    0.00    0.29
 2004 239   322    70   13.8    0.4   13.4   0.63   0.67   14.7    7.1    6.3    0.7   0.67   0.31    0.00    0.29
 2004 240   323    71   13.8    0.5   13.3   0.63   0.67   14.7    7.0    6.3    0.7   0.67   0.31    0.00    0.29
 2004 241   324    72   13.8    0.6   13.2   0.64   0.66   14.7    7.0    6.2    0.7   0.66   0.31    0.00    0.29
 2004 242   325    73   13.8    0.7   13.1   0.64   0.66   14.7    6.9    6.2    0.7   0.66   0.31    0.00    0.29
 2004 243   326    74   13.8    0.7   13.1   0.64   0.66   14.8    6.9    6.2    0.7   0.66   0.31    0.00    0.30
 2004 244   327    75   13.9    0.8   13.0   0.64   0.65   14.8    6.9    6.1    0.7   0.65   0.31    0.00    0.31
 2004 245   328    76   13.9    0.9   13.0   0.64   0.65   14.8    6.9    6.1    0.7   0.65   0.31    0.00    0.31
 2004 246   329    77   13.9    1.0   12.9   0.64   0.65   14.8    6.8    6.1    0.6   0.65   0.31    0.00    0.32
 2004 247   330    78   13.9    1.1   12.8   0.64   0.64   14.8    6.8    6.0    0.6   0.64   0.31    0.00    0.32
 2004 248   331    79   13.9    1.1   12.8   0.65   0.64   14.8    6.7    6.0    0.6   0.64   0.31    0.00    0.32
 2004 249   332    80   13.9    1.2   12.7   0.65   0.64   14.8    6.7    6.0    0.6   0.64   0.31    0.00    0.32
 2004 250   333    81   13.9    1.3   12.6   0.65   0.63   14.8    6.7    5.9    0.6   0.63   0.31    0.00    0.32
 2004 251   334    82   13.9    1.4   12.5   0.65   0.63   14.8    6.6    5.9    0.6   0.63   0.31    0.00    0.32
 2004 252   335    83   13.9    1.4   12.4   0.65   0.62   14.9    6.6    5.9    0.6   0.62   0.31    0.00    0.32
 2004 253   336    84   13.9    1.5   12.4   0.65   0.62   14.9    6.6    5.8    0.6   0.62   0.31    0.00    0.33
 2004 254   337    85   14.0    1.6   12.4   0.66   0.62   15.0    6.5    5.8    0.6   0.62   0.32    0.00    0.34
 2004 255   338    86   14.0    1.7   12.3   0.66   0.62   15.1    6.5    5.8    0.6   0.62   0.32    0.00    0.35
 2004 256   339    87   14.1    1.8   12.3   0.66   0.62   15.2    6.5    5.8    0.6   0.62   0.33    0.00    0.36
 2004 257   340    88   14.2    1.8   12.3   0.66   0.62   15.3    6.5    5.8    0.6   0.62   0.33    0.00    0.37
 2004 258   341    89   14.2    1.9   12.2   0.66   0.61   15.3    6.5    5.8    0.6   0.61   0.33    0.00    0.38
 2004 259   342    90   14.2    2.0   12.2   0.67   0.61   15.3    6.4    5.7    0.6   0.61   0.33    0.00    0.39
 2004 260   343    91   14.2    2.1   12.1   0.67   0.61   15.3    6.4    5.7    0.6   0.61   0.33    0.00    0.39
 2004 261   344    92   14.2    2.2   12.0   0.67   0.60   15.3    6.3    5.7    0.6   0.60   0.33    0.00    0.39
 2004 262   345    93   14.2    2.3   11.9   0.67   0.60   15.3    6.3    5.6    0.6   0.60   0.33    0.00    0.39
 2004 263   346    94   14.2    2.3   11.8   0.67   0.59   15.3    6.3    5.6    0.6   0.59   0.34    0.00    0.39
 2004 264   347    95   14.2    2.4   11.8   0.68   0.59   15.3    6.2    5.5    0.6   0.59   0.34    0.00    0.40
 2004 265   348    96   14.2    2.5   11.7   0.68   0.59   15.4    6.2    5.5    0.6   0.59   0.34    0.00    0.41
 2004 266   349    97   14.2    2.6   11.6   0.68   0.58   15.4    6.1    5.5    0.6   0.58   0.34    0.00    0.41
 2004 267   350    98   14.2    2.6   11.6   0.68   0.58   15.4    6.1    5.5    0.6   0.58   0.34    0.00    0.41
 2004 268   351    99   14.2    2.6   11.6   0.68   0.58   15.4    6.1    5.5    0.6   0.58   0.34    0.00    0.41
 2004 269   352   100   14.2    2.6   11.6   0.68   0.58   15.4    6.1    5.5    0.6   0.58   0.34    0.00    0.41
 2004 270   353   101   14.2    2.6   11.6   0.68   0.58   15.4    6.1    5.5    0.6   0.58   0.34    0.00    0.41
 2004 271   354   102   14.2    2.6   11.6   0.68   0.58   15.4    6.1    5.5    0.6   0.58   0.34    0.00    0.41
 2004 272   355   103   14.2    2.6   11.6   0.68   0.58   15.4    6.1    5.5    0.6   0.58   0.34    0.00    0.41
 2004 273   356   104   14.2    2.6   11.6   0.68   0.58   15.4    6.1    5.5    0.6   0.58   0.34    0.00    0.41
 2004 274   357   105   14.2    2.6   11.6   0.68   0.58   15.4    6.1    5.5    0.6   0.58   0.34    0.00    0.41
 2004 275   358   106   14.2    2.6   11.6   0.68   0.58   15.4    6.1    5.5    0.6   0.58   0.34    0.00    0.41
 2004 276   359   107   14.2    2.6   11.6   0.68   0.58   15.4    6.1    5.5    0.6   0.58   0.34    0.00    0.41
 2004 277   360   108   14.2    2.6   11.6   0.68   0.58   15.4    6.1    5.5    0.6   0.58   0.34    0.00    0.41
 2004 278   361   109   14.2    2.6   11.6   0.68   0.58   15.4    6.1    5.5    0.6   0.58   0.34    0.00    0.41
 2004 279   362   110   14.2    2.6   11.6   0.68   0.58   15.4    6.1    5.5    0.6   0.58   0.34    0.00    0.41
 2004 280   363   111   14.2    2.6   11.6   0.68   0.58   15.4    6.1    5.5    0.6   0.58   0.34    0.00    0.41
 2004 281   364   112   14.2    2.6   11.6   0.68   0.58   15.4    6.1    5.5    0.6   0.58   0.34    0.00    0.41
 2004 282   365   113   14.2    2.6   11.6   0.68   0.58   15.4    6.1    5.5    0.6   0.58   0.34    0.00    0.41
 2004 283   366   114   14.2    2.6   11.6   0.68   0.58   15.4    6.1    5.5    0.6   0.58   0.34    0.00    0.41
 2004 284   367   115   14.2    2.6   11.6   0.68   0.58   15.4    6.1    5.5    0.6   0.58   0.34    0.00    0.41
 2004 285   368   116   14.2    2.6   11.6   0.68   0.58   15.4    6.1    5.5    0.6   0.58   0.34    0.00    0.41
 2004 286   369   117   14.2    2.6   11.6   0.68   0.58   15.4    6.1    5.5    0.6   0.58   0.34    0.00    0.41
 2004 287   370   118   14.2    2.6   11.6   0.68   0.58   15.4    6.1    5.5    0.6   0.58   0.34    0.00    0.41
 2004 288   371   119   14.2    2.6   11.6   0.68   0.58   15.4    6.1    5.5    0.6   0.58   0.34    0.00    0.41
 2004 289   372   120   14.2    2.6   11.6   0.68   0.58   15.4    6.1    5.5    0.6   0.58   0.34    0.00    0.41
 2004 290   373   121   14.2    2.6   11.6   0.68   0.58   15.4    6.1    5.5    0.6   0.58   0.34    0.00    0.41
 2004 291   374   122   14.2    2.6   11.6   0.68   0.58   15.4    6.1    5.5    0.6   0.58   0.34    0.00    0.41
 2004 292   375   123   14.2    2.6   11.6   0.68   0.58   15.4    6.1    5.5    0.6   0.58   0.34    0.00    0.41
 2004 293   376   124   14.2    2.6   11.6   0.68   0.58   15.4    6.1    5.5    0.6   0.58   0.34    0.00    0.41
 2004 294   377   125   14.2    2.6   11.6   0.68   0.58   15.4    6.1    5.5    0.6   0.58   0.34    0.00    0.41

*DSSAT Cropping System Model Ver. 4.5.1.023 -Stub         DEC 04, 2014; 01:35:45
                                                                                
*RUN   4        : N60 P0                    MZCER045 GHWA0401    4              
 MODEL          : MZCER045 - Maize                                              
 EXPERIMENT     : GHWA0401 MZ ON-STATION NXP (EXPERIMENT NO.2) 9 TRT            
 DATA PATH      :                                                               
 TREATMENT  4   : N60 P0                    MZCER045                            
  
@YEAR DOY   DAS   DAP   CNAD   GNAD   VNAD   GN%D   VN%D   NUPC   LNAD   SNAD   LN%D   SN%D   RN%D   SNN0C   SNN1C
 2004 169   252     0    0.0    0.0    0.0   0.00   0.00    0.0    0.0    0.0    0.0   0.00   0.00    0.00    0.00
 2004 170   253     1    0.0    0.0    0.0   0.00   0.00    0.0    0.0    0.0    0.0   0.00   0.00    0.00    0.00
 2004 171   254     2    0.0    0.0    0.0   0.00   0.00    0.0    0.0    0.0    0.0   0.00   0.00    0.00    0.00
 2004 172   255     3    0.0    0.0    0.0   0.00   0.00    0.0    0.0    0.0    0.0   0.00   0.00    0.00    0.00
 2004 173   256     4    0.0    0.0    0.0   0.00   0.00    0.0    0.0    0.0    0.0   0.00   0.00    0.00    0.00
 2004 174   257     5    0.9    0.0    0.9   0.00   4.40    0.0    0.4    0.4    4.4   4.40   2.20    0.00    0.00
 2004 175   258     6    0.9    0.0    0.9   0.00   4.40    0.0    0.4    0.4    4.4   4.40   2.11    0.00    0.00
 2004 176   259     7    0.9    0.0    0.9   0.00   4.40    0.0    0.4    0.4    4.4   4.40   1.94    0.00    0.00
 2004 177   260     8    0.9    0.0    0.9   0.00   4.40    0.0    0.4    0.4    4.4   4.40   1.74    0.00    0.00
 2004 178   261     9    0.9    0.0    0.9   0.00   3.68    0.0    0.5    0.4    3.7   3.68   1.63    0.00    0.00
 2004 179   262    10    1.0    0.0    1.0   0.00   3.35    0.1    0.7    0.3    3.3   3.35   1.26    0.00    0.00
 2004 180   263    11    1.3    0.0    1.3   0.00   3.41    0.4    1.0    0.3    3.4   3.41   1.16    0.00    0.00
 2004 181   264    12    1.6    0.0    1.6   0.00   3.55    0.8    1.3    0.4    3.5   3.55   1.28    0.00    0.00
 2004 182   265    13    1.9    0.0    1.9   0.00   3.53    1.1    1.5    0.4    3.5   3.53   1.23    0.00    0.00
 2004 183   266    14    2.2    0.0    2.2   0.00   3.42    1.5    1.9    0.3    3.4   3.42   1.42    0.00    0.01
 2004 184   267    15    2.6    0.0    2.6   0.00   3.48    1.9    2.3    0.3    3.5   3.48   1.31    0.00    0.01
 2004 185   268    16    3.1    0.0    3.1   0.00   3.62    2.3    2.7    0.4    3.6   3.62   1.16    0.00    0.01
 2004 186   269    17    3.4    0.0    3.4   0.00   3.42    2.7    3.0    0.3    3.4   3.42   1.34    0.00    0.01
 2004 187   270    18    3.9    0.0    3.9   0.00   3.39    3.3    3.6    0.3    3.4   3.39   1.27    0.00    0.01
 2004 188   271    19    4.5    0.0    4.5   0.00   3.37    4.0    4.1    0.3    3.4   3.37   1.40    0.00    0.02
 2004 189   272    20    5.1    0.0    5.1   0.00   3.63    4.8    4.8    0.4    3.6   3.63   1.55    0.00    0.02
 2004 190   273    21    5.5    0.0    5.5   0.00   3.45    5.0    5.1    0.3    3.5   3.45   1.22    0.00    0.02
 2004 191   274    22    6.1    0.0    6.1   0.00   3.28    5.7    5.7    0.3    3.3   3.28   1.30    0.00    0.03
 2004 192   275    23    8.4    0.0    8.4   0.00   4.18    8.1    8.0    0.4    4.2   4.18   1.25    0.00    0.03
 2004 193   276    24    9.3    0.0    9.3   0.00   4.06    8.9    8.8    0.4    4.1   4.06   1.14    0.00    0.03
 2004 194   277    25   10.3    0.0   10.3   0.00   4.01    9.9    9.9    0.4    4.0   4.01   1.16    0.00    0.04
 2004 195   278    26   11.6    0.0   11.6   0.00   4.09   11.6   11.1    0.5    4.1   4.09   1.55    0.00    0.04
 2004 196   279    27   11.6    0.0   11.6   0.00   3.84   11.6   11.1    0.5    3.8   3.84   1.53    0.00    0.04
 2004 197   280    28   12.8    0.0   12.8   0.00   3.90   12.8   12.3    0.6    3.9   3.90   1.35    0.00    0.04
 2004 198   281    29   13.9    0.0   13.9   0.00   3.89   13.7   13.2    0.7    3.9   3.89   1.22    0.00    0.05
 2004 199   282    30   13.9    0.0   13.9   0.00   3.73   13.7   13.1    0.7    3.7   3.73   1.21    0.00    0.05
 2004 200   283    31   14.8    0.0   14.8   0.00   3.70   14.6   13.8    0.9    3.7   3.70   1.17    0.00    0.05
 2004 201   284    32   16.4    0.0   16.4   0.00   3.78   16.3   15.2    1.2    3.8   3.78   1.22    0.00    0.06
 2004 202   285    33   16.4    0.0   16.4   0.00   3.62   16.3   15.1    1.4    3.6   3.62   1.21    0.00    0.06
 2004 203   286    34   16.4    0.0   16.4   0.00   3.51   16.3   14.9    1.5    3.5   3.51   1.20    0.00    0.06
 2004 204   287    35   17.5    0.0   17.5   0.00   3.49   17.4   15.6    1.9    3.5   3.49   1.19    0.00    0.06
 2004 205   288    36   18.8    0.0   18.8   0.00   3.51   18.8   16.5    2.4    3.5   3.51   1.22    0.00    0.07
 2004 206   289    37   18.8    0.0   18.8   0.00   3.41   18.8   16.3    2.5    3.4   3.41   1.21    0.00    0.07
 2004 207   290    38   19.3    0.0   19.3   0.00   3.31   19.2   16.4    2.9    3.3   3.31   1.19    0.00    0.07
 2004 208   291    39   19.7    0.0   19.7   0.00   3.23   19.6   16.4    3.2    3.2   3.23   1.18    0.00    0.08
 2004 209   292    40   19.7    0.0   19.7   0.00   3.12   19.6   16.2    3.5    3.1   3.12   1.17    0.00    0.08
 2004 210   293    41   20.0    0.0   20.0   0.00   3.05   20.0   16.2    3.8    3.1   3.05   1.16    0.00    0.08
 2004 211   294    42   20.9    0.0   20.9   0.00   3.03   20.9   16.5    4.4    3.0   3.03   1.18    0.00    0.09
 2004 212   295    43   20.9    0.0   20.9   0.00   2.93   20.9   16.3    4.6    2.9   2.93   1.15    0.00    0.09
 2004 213   296    44   21.5    0.0   21.5   0.00   2.89   21.5   16.4    5.0    2.9   2.89   1.16    0.00    0.10
 2004 214   297    45   23.1    0.0   23.1   0.00   2.93   23.2   17.1    6.0    2.9   2.93   1.20    0.00    0.10
 2004 215   298    46   23.1    0.0   23.1   0.00   2.82   23.2   16.7    6.4    2.8   2.82   1.17    0.00    0.11
 2004 216   299    47   24.3    0.0   24.3   0.00   2.81   24.4   17.0    7.2    2.8   2.81   1.19    0.00    0.11
 2004 217   300    48   24.3    0.0   24.3   0.00   2.74   24.4   16.8    7.5    2.7   2.74   1.19    0.00    0.11
 2004 218   301    49   24.5    0.0   24.5   0.00   2.66   24.6   16.5    8.0    2.7   2.66   1.16    0.00    0.12
 2004 219   302    50   24.5    0.0   24.5   0.00   2.58   24.7   16.2    8.4    2.6   2.58   1.14    0.00    0.13
 2004 220   303    51   25.8    0.0   25.8   0.00   2.59   26.0   16.5    9.3    2.6   2.59   1.17    0.00    0.13
 2004 221   304    52   25.8    0.0   25.8   0.00   2.53   26.0   16.2    9.6    2.5   2.53   1.16    0.00    0.13
 2004 222   305    53   25.8    0.0   25.8   0.00   2.46   26.0   15.9    9.9    2.5   2.46   1.14    0.00    0.13
 2004 223   306    54   25.8    0.0   25.8   0.00   2.40   26.0   15.7   10.1    2.4   2.40   1.13    0.00    0.13
 2004 224   307    55   25.8    0.0   25.8   0.00   2.35   26.0   15.5   10.3    2.3   2.35   1.12    0.00    0.13
 2004 225   308    56   26.8    0.0   26.8   0.00   2.35   27.0   15.7   11.0    2.4   2.35   1.13    0.00    0.14
 2004 226   309    57   28.0    0.0   28.0   0.00   2.37   28.3   15.6   12.3    2.4   2.37   1.14    0.00    0.14
 2004 227   310    58   28.0    0.0   28.0   0.00   2.34   28.3   15.2   12.7    2.3   2.34   1.13    0.00    0.14
 2004 228   311    59   28.0    0.0   28.0   0.00   2.28   28.3   14.6   13.4    2.3   2.28   1.11    0.00    0.14
 2004 229   312    60   28.0    0.0   28.0   0.00   2.24   28.3   14.1   13.9    2.2   2.24   1.09    0.00    0.14
 2004 230   313    61   28.0    0.0   28.0   0.00   2.23   28.3   13.7   14.2    2.2   2.23   1.09    0.00    0.14
 2004 231   314    62   28.0    0.0   28.0   0.00   2.21   28.3   13.3   14.7    2.2   2.21   1.08    0.00    0.14
 2004 232   315    63   28.0    0.0   28.0   0.00   2.17   28.3   12.8   15.1    2.2   2.17   1.07    0.00    0.14
 2004 233   316    64   28.0    0.0   28.0   0.00   2.17   28.3   12.5   15.5    2.2   2.17   1.06    0.00    0.14
 2004 234   317    65   28.0    0.0   28.0   0.00   2.17   28.3   12.2   15.8    2.2   2.17   1.06    0.00    0.14
 2004 235   318    66   28.0    0.0   28.0   0.00   2.17   28.3   11.8   16.2    2.2   2.17   1.06    0.00    0.14
 2004 236   319    67   28.0    0.6   27.4   1.74   2.14   28.3   11.7   15.7    2.1   2.14   1.06    0.00    0.14
 2004 237   320    68   28.0    1.1   26.8   1.77   2.09   28.3   11.4   15.5    2.1   2.09   1.04    0.00    0.14
 2004 238   321    69   28.0    1.6   26.4   1.79   2.05   28.3   11.1   15.2    2.0   2.05   1.01    0.00    0.14
 2004 239   322    70   28.0    2.2   25.8   1.79   2.01   28.3   10.9   14.8    2.0   2.01   1.02    0.00    0.14
 2004 240   323    71   28.0    2.8   25.2   1.79   1.96   28.3   10.7   14.5    2.0   1.96   1.02    0.00    0.14
 2004 241   324    72   28.0    3.4   24.6   1.78   1.94   28.3   10.6   14.0    1.9   1.94   1.02    0.00    0.14
 2004 242   325    73   28.0    3.9   24.1   1.79   1.89   28.3   10.3   13.8    1.9   1.89   1.02    0.00    0.14
 2004 243   326    74   28.0    4.4   23.6   1.79   1.85   28.3   10.1   13.5    1.9   1.85   1.01    0.00    0.14
 2004 244   327    75   28.0    4.9   23.1   1.79   1.83   28.3   10.0   13.1    1.8   1.83   1.01    0.00    0.14
 2004 245   328    76   28.0    5.5   22.5   1.79   1.80   28.3    9.8   12.7    1.8   1.80   1.02    0.00    0.14
 2004 246   329    77   28.0    6.1   21.9   1.79   1.79   28.3    9.7   12.2    1.8   1.79   1.02    0.00    0.14
 2004 247   330    78   28.0    6.6   21.4   1.79   1.75   28.3    9.5   11.9    1.7   1.75   1.03    0.00    0.14
 2004 248   331    79   28.0    7.2   20.8   1.79   1.72   28.3    9.4   11.4    1.7   1.72   1.03    0.00    0.14
 2004 249   332    80   28.0    7.8   20.2   1.79   1.68   28.3    9.2   11.1    1.7   1.68   1.04    0.00    0.14
 2004 250   333    81   28.0    8.4   19.6   1.79   1.66   28.3    9.0   10.6    1.7   1.66   1.04    0.00    0.14
 2004 251   334    82   28.0    9.0   19.0   1.78   1.63   28.3    8.9   10.1    1.6   1.63   1.05    0.00    0.14
 2004 252   335    83   28.0    9.6   18.4   1.78   1.60   28.3    8.7    9.7    1.6   1.60   1.06    0.00    0.14
 2004 253   336    84   28.0   10.2   17.8   1.78   1.58   28.3    8.6    9.2    1.6   1.58   1.06    0.00    0.14
 2004 254   337    85   28.0   10.8   17.2   1.78   1.55   28.3    8.5    8.7    1.6   1.55   1.07    0.00    0.14
 2004 255   338    86   28.0   11.4   16.6   1.78   1.53   28.3    8.3    8.3    1.5   1.53   1.07    0.00    0.14
 2004 256   339    87   28.0   12.0   16.0   1.77   1.51   28.3    8.2    7.8    1.5   1.51   1.08    0.00    0.14
 2004 257   340    88   28.0   12.6   15.4   1.77   1.47   28.3    8.0    7.4    1.5   1.47   1.08    0.00    0.14
 2004 258   341    89   28.0   13.2   14.8   1.77   1.43   28.3    7.8    7.0    1.4   1.43   1.09    0.00    0.14
 2004 259   342    90   28.0   13.8   14.2   1.77   1.40   28.3    7.6    6.5    1.4   1.40   1.09    0.00    0.14
 2004 260   343    91   28.0   14.4   13.6   1.77   1.38   28.3    7.5    6.1    1.4   1.38   1.10    0.00    0.14
 2004 261   344    92   28.0   15.0   13.0   1.77   1.34   28.3    7.3    5.7    1.3   1.34   1.10    0.00    0.14
 2004 262   345    93   28.0   15.5   12.5   1.77   1.29   28.3    7.0    5.5    1.3   1.29   1.11    0.00    0.14
 2004 263   346    94   28.0   16.0   11.9   1.77   1.26   28.3    6.8    5.1    1.3   1.26   1.12    0.00    0.14
 2004 264   347    95   28.0   16.2   11.8   1.77   1.25   28.3    6.8    5.0    1.2   1.25   1.12    0.00    0.14
 2004 265   348    96   28.0   16.4   11.6   1.77   1.23   28.3    6.7    4.9    1.2   1.23   1.13    0.00    0.14
 2004 266   349    97   28.0   16.6   11.4   1.77   1.21   28.3    6.6    4.8    1.2   1.21   1.13    0.00    0.14
 2004 267   350    98   28.0   16.6   11.4   1.77   1.21   28.3    6.6    4.8    1.2   1.21   1.13    0.00    0.14
 2004 268   351    99   28.0   16.6   11.4   1.77   1.21   28.3    6.6    4.8    1.2   1.21   1.13    0.00    0.14
 2004 269   352   100   28.0   16.6   11.4   1.77   1.21   28.3    6.6    4.8    1.2   1.21   1.13    0.00    0.14
 2004 270   353   101   28.0   16.6   11.4   1.77   1.21   28.3    6.6    4.8    1.2   1.21   1.13    0.00    0.14
 2004 271   354   102   28.0   16.6   11.4   1.77   1.21   28.3    6.6    4.8    1.2   1.21   1.13    0.00    0.14
 2004 272   355   103   28.0   16.6   11.4   1.77   1.21   28.3    6.6    4.8    1.2   1.21   1.13    0.00    0.14
 2004 273   356   104   28.0   16.6   11.4   1.77   1.21   28.3    6.6    4.8    1.2   1.21   1.13    0.00    0.14
 2004 274   357   105   28.0   16.6   11.4   1.77   1.21   28.3    6.6    4.8    1.2   1.21   1.13    0.00    0.14
 2004 275   358   106   28.0   16.6   11.4   1.77   1.21   28.3    6.6    4.8    1.2   1.21   1.13    0.00    0.14
 2004 276   359   107   28.0   16.6   11.4   1.77   1.21   28.3    6.6    4.8    1.2   1.21   1.13    0.00    0.14
 2004 277   360   108   28.0   16.6   11.4   1.77   1.21   28.3    6.6    4.8    1.2   1.21   1.13    0.00    0.14
 2004 278   361   109   28.0   16.6   11.4   1.77   1.21   28.3    6.6    4.8    1.2   1.21   1.13    0.00    0.14
 2004 279   362   110   28.0   16.6   11.4   1.77   1.21   28.3    6.6    4.8    1.2   1.21   1.13    0.00    0.14
 2004 280   363   111   28.0   16.6   11.4   1.77   1.21   28.3    6.6    4.8    1.2   1.21   1.13    0.00    0.14
 2004 281   364   112   28.0   16.6   11.4   1.77   1.21   28.3    6.6    4.8    1.2   1.21   1.13    0.00    0.14
 2004 282   365   113   28.0   16.6   11.4   1.77   1.21   28.3    6.6    4.8    1.2   1.21   1.13    0.00    0.14
 2004 283   366   114   28.0   16.6   11.4   1.77   1.21   28.3    6.6    4.8    1.2   1.21   1.13    0.00    0.14
 2004 284   367   115   28.0   16.6   11.4   1.77   1.21   28.3    6.6    4.8    1.2   1.21   1.13    0.00    0.14
 2004 285   368   116   28.0   16.6   11.4   1.77   1.21   28.3    6.6    4.8    1.2   1.21   1.13    0.00    0.14
 2004 286   369   117   28.0   16.6   11.4   1.77   1.21   28.3    6.6    4.8    1.2   1.21   1.13    0.00    0.14
 2004 287   370   118   28.0   16.6   11.4   1.77   1.21   28.3    6.6    4.8    1.2   1.21   1.13    0.00    0.14
 2004 288   371   119   28.0   16.6   11.4   1.77   1.21   28.3    6.6    4.8    1.2   1.21   1.13    0.00    0.14
 2004 289   372   120   28.0   16.6   11.4   1.77   1.21   28.3    6.6    4.8    1.2   1.21   1.13    0.00    0.14
 2004 290   373   121   28.0   16.6   11.4   1.77   1.21   28.3    6.6    4.8    1.2   1.21   1.13    0.00    0.14
 2004 291   374   122   28.0   16.6   11.4   1.77   1.21   28.3    6.6    4.8    1.2   1.21   1.13    0.00    0.14
 2004 292   375   123   28.0   16.6   11.4   1.77   1.21   28.3    6.6    4.8    1.2   1.21   1.13    0.00    0.14
 2004 293   376   124   28.0   16.6   11.4   1.77   1.21   28.3    6.6    4.8    1.2   1.21   1.13    0.00    0.14
 2004 294   377   125   28.0   16.6   11.4   1.77   1.21   28.3    6.6    4.8    1.2   1.21   1.13    0.00    0.14

*DSSAT Cropping System Model Ver. 4.5.1.023 -Stub         DEC 04, 2014; 01:35:45
                                                                                
*RUN   5        : N60 P60                   MZCER045 GHWA0401    5              
 MODEL          : MZCER045 - Maize                                              
 EXPERIMENT     : GHWA0401 MZ ON-STATION NXP (EXPERIMENT NO.2) 9 TRT            
 DATA PATH      :                                                               
 TREATMENT  5   : N60 P60                   MZCER045                            
  
@YEAR DOY   DAS   DAP   CNAD   GNAD   VNAD   GN%D   VN%D   NUPC   LNAD   SNAD   LN%D   SN%D   RN%D   SNN0C   SNN1C
 2004 169   252     0    0.0    0.0    0.0   0.00   0.00    0.0    0.0    0.0    0.0   0.00   0.00    0.00    0.00
 2004 170   253     1    0.0    0.0    0.0   0.00   0.00    0.0    0.0    0.0    0.0   0.00   0.00    0.00    0.00
 2004 171   254     2    0.0    0.0    0.0   0.00   0.00    0.0    0.0    0.0    0.0   0.00   0.00    0.00    0.00
 2004 172   255     3    0.0    0.0    0.0   0.00   0.00    0.0    0.0    0.0    0.0   0.00   0.00    0.00    0.00
 2004 173   256     4    0.0    0.0    0.0   0.00   0.00    0.0    0.0    0.0    0.0   0.00   0.00    0.00    0.00
 2004 174   257     5    0.9    0.0    0.9   0.00   4.40    0.0    0.4    0.4    4.4   4.40   2.20    0.00    0.00
 2004 175   258     6    0.9    0.0    0.9   0.00   4.40    0.0    0.4    0.4    4.4   4.40   2.11    0.00    0.00
 2004 176   259     7    0.9    0.0    0.9   0.00   4.40    0.0    0.4    0.4    4.4   4.40   1.94    0.00    0.00
 2004 177   260     8    0.9    0.0    0.9   0.00   4.40    0.0    0.4    0.4    4.4   4.40   1.74    0.00    0.00
 2004 178   261     9    0.9    0.0    0.9   0.00   3.68    0.0    0.5    0.4    3.7   3.68   1.63    0.00    0.00
 2004 179   262    10    1.0    0.0    1.0   0.00   3.35    0.1    0.7    0.3    3.3   3.35   1.26    0.00    0.00
 2004 180   263    11    1.3    0.0    1.3   0.00   3.41    0.4    1.0    0.3    3.4   3.41   1.16    0.00    0.00
 2004 181   264    12    1.6    0.0    1.6   0.00   3.46    0.8    1.3    0.3    3.5   3.46   1.25    0.00    0.00
 2004 182   265    13    2.0    0.0    2.0   0.00   3.14    1.1    1.6    0.3    3.1   3.14   1.17    0.00    0.00
 2004 183   266    14    2.6    0.0    2.6   0.00   3.14    1.9    2.2    0.3    3.1   3.14   1.33    0.00    0.01
 2004 184   267    15    3.3    0.0    3.3   0.00   3.16    2.7    3.0    0.3    3.2   3.16   1.23    0.00    0.01
 2004 185   268    16    4.3    0.0    4.3   0.00   3.55    3.6    3.9    0.4    3.6   3.55   1.14    0.00    0.01
 2004 186   269    17    4.8    0.0    4.8   0.00   3.01    4.2    4.5    0.3    3.0   3.01   1.23    0.00    0.01
 2004 187   270    18    6.3    0.0    6.3   0.00   3.04    5.8    6.0    0.3    3.0   3.04   1.23    0.00    0.01
 2004 188   271    19    8.0    0.0    8.0   0.00   2.97    7.8    7.7    0.3    3.0   2.97   1.29    0.00    0.02
 2004 189   272    20   10.5    0.0   10.5   0.00   3.46   10.7   10.1    0.3    3.5   3.46   1.38    0.00    0.02
 2004 190   273    21   11.8    0.0   11.8   0.00   3.26   11.9   11.4    0.3    3.3   3.26   1.17    0.00    0.03
 2004 191   274    22   13.8    0.0   13.8   0.00   3.18   14.4   13.5    0.3    3.2   3.18   1.29    0.00    0.03
 2004 192   275    23   19.1    0.0   19.1   0.00   3.78   19.7   18.7    0.4    3.8   3.78   1.17    0.00    0.04
 2004 193   276    24   21.2    0.0   21.2   0.00   3.67   22.2   20.9    0.4    3.7   3.67   1.20    0.00    0.05
 2004 194   277    25   23.8    0.0   23.8   0.00   3.55   25.1   23.4    0.4    3.5   3.55   1.21    0.00    0.06
 2004 195   278    26   27.1    0.0   27.1   0.00   3.49   29.5   26.6    0.5    3.5   3.49   1.34    0.00    0.07
 2004 196   279    27   30.0    0.0   30.0   0.00   3.45   32.0   29.4    0.7    3.4   3.45   1.13    0.00    0.09
 2004 197   280    28   33.3    0.0   33.3   0.00   3.40   36.4   32.4    0.9    3.4   3.40   1.25    0.00    0.10
 2004 198   281    29   36.8    0.0   36.8   0.00   3.35   40.3   35.4    1.4    3.3   3.35   1.21    0.00    0.12
 2004 199   282    30   39.7    0.0   39.7   0.00   3.30   43.1   37.9    1.9    3.3   3.30   1.11    0.00    0.15
 2004 200   283    31   43.2    0.0   43.2   0.00   3.26   47.4   40.7    2.6    3.3   3.26   1.18    0.00    0.17
 2004 201   284    32   47.6    0.0   47.6   0.00   3.19   52.7   43.9    3.7    3.2   3.19   1.20    0.00    0.20
 2004 202   285    33   51.0    0.0   51.0   0.00   3.14   56.3   46.3    4.8    3.1   3.14   1.14    0.00    0.23
 2004 203   286    34   54.9    0.0   54.9   0.00   3.11   59.9   48.9    6.0    3.1   3.11   1.08    0.00    0.26
 2004 204   287    35   57.2    0.0   57.2   0.00   2.96   63.0   49.8    7.4    3.0   2.96   1.08    0.00    0.29
 2004 205   288    36   58.7    0.0   58.7   0.00   2.79   64.9   49.9    8.8    2.8   2.79   1.01    0.00    0.32
 2004 206   289    37   60.1    0.0   60.1   0.00   2.66   66.4   50.0   10.1    2.7   2.66   1.01    0.00    0.35
 2004 207   290    38   61.0    0.0   61.0   0.00   2.49   67.5   49.4   11.6    2.5   2.49   0.95    0.00    0.39
 2004 208   291    39   61.6    0.0   61.6   0.00   2.34   68.2   48.6   13.0    2.3   2.34   0.90    0.00    0.43
 2004 209   292    40   62.5    0.0   62.5   0.00   2.26   69.2   48.4   14.1    2.3   2.26   0.90    0.00    0.46
 2004 210   293    41   63.3    0.0   63.3   0.00   2.11   70.1   47.5   15.7    2.1   2.11   0.89    0.00    0.50
 2004 211   294    42   63.8    0.0   63.8   0.00   1.98   70.7   46.4   17.3    2.0   1.98   0.87    0.00    0.54
 2004 212   295    43   64.2    0.0   64.2   0.00   1.88   71.2   45.6   18.6    1.9   1.88   0.87    0.00    0.57
 2004 213   296    44   64.6    0.0   64.6   0.00   1.78   71.6   45.1   19.5    1.8   1.78   0.86    0.00    0.61
 2004 214   297    45   64.9    0.0   64.9   0.00   1.68   71.9   44.3   20.6    1.7   1.68   0.81    0.00    0.65
 2004 215   298    46   65.2    0.0   65.2   0.00   1.60   72.3   43.5   21.7    1.6   1.60   0.79    0.00    0.69
 2004 216   299    47   65.4    0.0   65.4   0.00   1.55   72.6   42.9   22.5    1.5   1.55   0.73    0.00    0.72
 2004 217   300    48   65.9    0.0   65.9   0.00   1.51   73.2   42.6   23.3    1.5   1.51   0.73    0.00    0.76
 2004 218   301    49   66.0    0.0   66.0   0.00   1.47   73.4   42.1   23.9    1.5   1.47   0.69    0.00    0.80
 2004 219   302    50   66.1    0.0   66.1   0.00   1.43   73.4   41.7   24.4    1.4   1.43   0.67    0.00    0.84
 2004 220   303    51   66.1    0.0   66.1   0.00   1.40   73.5   41.4   24.7    1.4   1.40   0.63    0.00    0.88
 2004 221   304    52   66.2    0.0   66.2   0.00   1.38   73.7   41.1   25.1    1.4   1.38   0.62    0.00    0.91
 2004 222   305    53   66.2    0.0   66.2   0.00   1.35   73.7   40.8   25.4    1.4   1.35   0.62    0.00    0.91
 2004 223   306    54   66.2    0.0   66.2   0.00   1.33   73.7   40.6   25.6    1.3   1.33   0.61    0.00    0.91
 2004 224   307    55   66.2    0.0   66.2   0.00   1.32   73.7   40.5   25.7    1.3   1.32   0.61    0.00    0.95
 2004 225   308    56   66.2    0.0   66.2   0.00   1.29   73.7   40.3   25.9    1.3   1.29   0.59    0.00    0.99
 2004 226   309    57   66.5    0.0   66.5   0.00   1.26   74.1   38.7   27.8    1.3   1.26   0.59    0.00    1.03
 2004 227   310    58   66.5    0.0   66.5   0.00   1.24   74.1   37.8   28.7    1.2   1.24   0.59    0.00    1.03
 2004 228   311    59   66.5    0.0   66.5   0.00   1.21   74.1   36.4   30.1    1.2   1.21   0.59    0.00    1.03
 2004 229   312    60   66.5    0.0   66.5   0.00   1.18   74.1   35.2   31.3    1.2   1.18   0.59    0.00    1.03
 2004 230   313    61   66.5    0.0   66.5   0.00   1.17   74.1   34.3   32.2    1.2   1.17   0.58    0.00    1.03
 2004 231   314    62   66.5    0.0   66.5   0.00   1.15   74.1   33.4   33.1    1.2   1.15   0.58    0.00    1.07
 2004 232   315    63   66.5    0.0   66.5   0.00   1.13   74.1   32.2   34.3    1.1   1.13   0.58    0.00    1.10
 2004 233   316    64   66.5    0.0   66.5   0.00   1.12   74.1   31.4   35.1    1.1   1.12   0.58    0.00    1.14
 2004 234   317    65   66.5    0.0   66.5   0.00   1.12   74.2   30.7   35.8    1.1   1.12   0.58    0.00    1.18
 2004 235   318    66   66.7    0.0   66.7   0.00   1.12   74.4   30.1   36.6    1.1   1.12   0.58    0.00    1.22
 2004 236   319    67   66.7    1.1   65.6   1.05   1.10   74.4   29.6   36.0    1.1   1.10   0.58    0.00    1.22
 2004 237   320    68   66.7    1.8   64.9   1.05   1.09   74.4   29.3   35.6    1.1   1.09   0.57    0.00    1.22
 2004 238   321    69   66.7    2.6   64.1   1.05   1.08   74.4   28.9   35.2    1.1   1.08   0.55    0.00    1.22
 2004 239   322    70   66.7    3.3   63.3   1.05   1.06   74.4   28.6   34.8    1.1   1.06   0.54    0.00    1.22
 2004 240   323    71   66.7    4.1   62.6   1.06   1.05   74.4   28.2   34.3    1.0   1.05   0.53    0.00    1.22
 2004 241   324    72   66.7    4.9   61.8   1.06   1.04   74.4   27.9   33.9    1.0   1.04   0.53    0.00    1.22
 2004 242   325    73   66.6    5.7   61.0   1.07   1.02   74.4   27.5   33.5    1.0   1.02   0.51    0.00    1.26
 2004 243   326    74   66.7    6.4   60.2   1.07   1.01   74.5   27.2   33.0    1.0   1.01   0.50    0.00    1.30
 2004 244   327    75   66.7    7.2   59.5   1.07   1.00   74.6   26.8   32.6    1.0   1.00   0.49    0.00    1.33
 2004 245   328    76   66.7    8.0   58.6   1.07   0.98   74.6   26.5   32.2    1.0   0.98   0.49    0.00    1.37
 2004 246   329    77   66.7    8.8   57.9   1.08   0.97   74.7   26.1   31.8    1.0   0.97   0.49    0.00    1.41
 2004 247   330    78   66.7    9.6   57.1   1.08   0.96   74.7   25.8   31.3    1.0   0.96   0.47    0.00    1.45
 2004 248   331    79   66.7   10.4   56.3   1.08   0.94   74.7   25.4   30.9    0.9   0.94   0.47    0.00    1.49
 2004 249   332    80   66.7   11.2   55.5   1.08   0.93   74.7   25.0   30.5    0.9   0.93   0.46    0.00    1.49
 2004 250   333    81   66.7   12.0   54.7   1.08   0.92   74.7   24.7   30.0    0.9   0.92   0.45    0.00    1.49
 2004 251   334    82   66.7   12.8   53.9   1.08   0.90   74.7   24.3   29.6    0.9   0.90   0.45    0.00    1.49
 2004 252   335    83   66.6   13.6   53.1   1.09   0.89   74.8   24.0   29.1    0.9   0.89   0.44    0.00    1.53
 2004 253   336    84   66.7   14.4   52.3   1.09   0.88   74.8   23.6   28.7    0.9   0.88   0.44    0.00    1.56
 2004 254   337    85   66.7   15.2   51.5   1.09   0.86   74.9   23.3   28.3    0.9   0.86   0.44    0.00    1.60
 2004 255   338    86   66.8   16.0   50.8   1.09   0.85   75.0   22.9   27.9    0.9   0.85   0.44    0.00    1.64
 2004 256   339    87   66.8   16.8   50.0   1.09   0.84   75.2   22.6   27.5    0.8   0.84   0.44    0.00    1.68
 2004 257   340    88   66.9   17.6   49.3   1.09   0.83   75.4   22.3   27.1    0.8   0.83   0.44    0.00    1.72
 2004 258   341    89   66.9   18.4   48.5   1.10   0.81   75.4   21.9   26.6    0.8   0.81   0.43    0.00    1.76
 2004 259   342    90   66.9   19.2   47.7   1.10   0.80   75.4   21.5   26.2    0.8   0.80   0.43    0.00    1.80
 2004 260   343    91   66.9   20.0   46.9   1.10   0.79   75.4   21.2   25.7    0.8   0.79   0.43    0.00    1.80
 2004 261   344    92   66.9   20.8   46.1   1.10   0.77   75.4   20.8   25.3    0.8   0.77   0.43    0.00    1.80
 2004 262   345    93   66.9   21.5   45.4   1.10   0.76   75.4   20.5   24.9    0.8   0.76   0.42    0.00    1.80
 2004 263   346    94   66.9   22.2   44.7   1.10   0.75   75.4   20.2   24.5    0.7   0.75   0.42    0.00    1.80
 2004 264   347    95   66.9   23.0   43.9   1.10   0.74   75.4   19.8   24.1    0.7   0.74   0.42    0.00    1.80
 2004 265   348    96   66.9   23.8   43.1   1.10   0.72   75.5   19.4   23.7    0.7   0.72   0.42    0.00    1.84
 2004 266   349    97   66.9   24.6   42.3   1.10   0.71   75.5   19.1   23.2    0.7   0.71   0.41    0.00    1.84
 2004 267   350    98   66.9   24.6   42.3   1.10   0.71   75.5   19.1   23.2    0.7   0.71   0.41    0.00    1.84
 2004 268   351    99   66.9   24.6   42.3   1.10   0.71   75.5   19.1   23.2    0.7   0.71   0.41    0.00    1.84
 2004 269   352   100   66.9   24.6   42.3   1.10   0.71   75.5   19.1   23.2    0.7   0.71   0.41    0.00    1.84
 2004 270   353   101   66.9   24.6   42.3   1.10   0.71   75.5   19.1   23.2    0.7   0.71   0.41    0.00    1.84
 2004 271   354   102   66.9   24.6   42.3   1.10   0.71   75.5   19.1   23.2    0.7   0.71   0.41    0.00    1.84
 2004 272   355   103   66.9   24.6   42.3   1.10   0.71   75.5   19.1   23.2    0.7   0.71   0.41    0.00    1.84
 2004 273   356   104   66.9   24.6   42.3   1.10   0.71   75.5   19.1   23.2    0.7   0.71   0.41    0.00    1.84
 2004 274   357   105   66.9   24.6   42.3   1.10   0.71   75.5   19.1   23.2    0.7   0.71   0.41    0.00    1.84
 2004 275   358   106   66.9   24.6   42.3   1.10   0.71   75.5   19.1   23.2    0.7   0.71   0.41    0.00    1.84
 2004 276   359   107   66.9   24.6   42.3   1.10   0.71   75.5   19.1   23.2    0.7   0.71   0.41    0.00    1.84
 2004 277   360   108   66.9   24.6   42.3   1.10   0.71   75.5   19.1   23.2    0.7   0.71   0.41    0.00    1.84
 2004 278   361   109   66.9   24.6   42.3   1.10   0.71   75.5   19.1   23.2    0.7   0.71   0.41    0.00    1.84
 2004 279   362   110   66.9   24.6   42.3   1.10   0.71   75.5   19.1   23.2    0.7   0.71   0.41    0.00    1.84
 2004 280   363   111   66.9   24.6   42.3   1.10   0.71   75.5   19.1   23.2    0.7   0.71   0.41    0.00    1.84
 2004 281   364   112   66.9   24.6   42.3   1.10   0.71   75.5   19.1   23.2    0.7   0.71   0.41    0.00    1.84
 2004 282   365   113   66.9   24.6   42.3   1.10   0.71   75.5   19.1   23.2    0.7   0.71   0.41    0.00    1.84
 2004 283   366   114   66.9   24.6   42.3   1.10   0.71   75.5   19.1   23.2    0.7   0.71   0.41    0.00    1.84
 2004 284   367   115   66.9   24.6   42.3   1.10   0.71   75.5   19.1   23.2    0.7   0.71   0.41    0.00    1.84
 2004 285   368   116   66.9   24.6   42.3   1.10   0.71   75.5   19.1   23.2    0.7   0.71   0.41    0.00    1.84
 2004 286   369   117   66.9   24.6   42.3   1.10   0.71   75.5   19.1   23.2    0.7   0.71   0.41    0.00    1.84
 2004 287   370   118   66.9   24.6   42.3   1.10   0.71   75.5   19.1   23.2    0.7   0.71   0.41    0.00    1.84
 2004 288   371   119   66.9   24.6   42.3   1.10   0.71   75.5   19.1   23.2    0.7   0.71   0.41    0.00    1.84
 2004 289   372   120   66.9   24.6   42.3   1.10   0.71   75.5   19.1   23.2    0.7   0.71   0.41    0.00    1.84
 2004 290   373   121   66.9   24.6   42.3   1.10   0.71   75.5   19.1   23.2    0.7   0.71   0.41    0.00    1.84
 2004 291   374   122   66.9   24.6   42.3   1.10   0.71   75.5   19.1   23.2    0.7   0.71   0.41    0.00    1.84
 2004 292   375   123   66.9   24.6   42.3   1.10   0.71   75.5   19.1   23.2    0.7   0.71   0.41    0.00    1.84
 2004 293   376   124   66.9   24.6   42.3   1.10   0.71   75.5   19.1   23.2    0.7   0.71   0.41    0.00    1.84
 2004 294   377   125   66.9   24.6   42.3   1.10   0.71   75.5   19.1   23.2    0.7   0.71   0.41    0.00    1.84

*DSSAT Cropping System Model Ver. 4.5.1.023 -Stub         DEC 04, 2014; 01:35:45
                                                                                
*RUN   6        : N60 P90                   MZCER045 GHWA0401    6              
 MODEL          : MZCER045 - Maize                                              
 EXPERIMENT     : GHWA0401 MZ ON-STATION NXP (EXPERIMENT NO.2) 9 TRT            
 DATA PATH      :                                                               
 TREATMENT  6   : N60 P90                   MZCER045                            
  
@YEAR DOY   DAS   DAP   CNAD   GNAD   VNAD   GN%D   VN%D   NUPC   LNAD   SNAD   LN%D   SN%D   RN%D   SNN0C   SNN1C
 2004 169   252     0    0.0    0.0    0.0   0.00   0.00    0.0    0.0    0.0    0.0   0.00   0.00    0.00    0.00
 2004 170   253     1    0.0    0.0    0.0   0.00   0.00    0.0    0.0    0.0    0.0   0.00   0.00    0.00    0.00
 2004 171   254     2    0.0    0.0    0.0   0.00   0.00    0.0    0.0    0.0    0.0   0.00   0.00    0.00    0.00
 2004 172   255     3    0.0    0.0    0.0   0.00   0.00    0.0    0.0    0.0    0.0   0.00   0.00    0.00    0.00
 2004 173   256     4    0.0    0.0    0.0   0.00   0.00    0.0    0.0    0.0    0.0   0.00   0.00    0.00    0.00
 2004 174   257     5    0.9    0.0    0.9   0.00   4.40    0.0    0.4    0.4    4.4   4.40   2.20    0.00    0.00
 2004 175   258     6    0.9    0.0    0.9   0.00   4.40    0.0    0.4    0.4    4.4   4.40   2.11    0.00    0.00
 2004 176   259     7    0.9    0.0    0.9   0.00   4.40    0.0    0.4    0.4    4.4   4.40   1.94    0.00    0.00
 2004 177   260     8    0.9    0.0    0.9   0.00   4.40    0.0    0.4    0.4    4.4   4.40   1.74    0.00    0.00
 2004 178   261     9    0.9    0.0    0.9   0.00   3.68    0.0    0.5    0.4    3.7   3.68   1.63    0.00    0.00
 2004 179   262    10    1.0    0.0    1.0   0.00   3.35    0.1    0.7    0.3    3.3   3.35   1.26    0.00    0.00
 2004 180   263    11    1.3    0.0    1.3   0.00   3.41    0.4    1.0    0.3    3.4   3.41   1.16    0.00    0.00
 2004 181   264    12    1.6    0.0    1.6   0.00   3.46    0.8    1.3    0.3    3.5   3.46   1.25    0.00    0.00
 2004 182   265    13    2.0    0.0    2.0   0.00   3.14    1.1    1.6    0.3    3.1   3.14   1.17    0.00    0.00
 2004 183   266    14    2.6    0.0    2.6   0.00   3.14    1.9    2.2    0.3    3.1   3.14   1.33    0.00    0.01
 2004 184   267    15    3.3    0.0    3.3   0.00   3.16    2.7    3.0    0.3    3.2   3.16   1.23    0.00    0.01
 2004 185   268    16    4.3    0.0    4.3   0.00   3.55    3.6    3.9    0.4    3.6   3.55   1.14    0.00    0.01
 2004 186   269    17    4.8    0.0    4.8   0.00   3.01    4.2    4.5    0.3    3.0   3.01   1.23    0.00    0.01
 2004 187   270    18    6.3    0.0    6.3   0.00   3.04    5.8    6.0    0.3    3.0   3.04   1.23    0.00    0.01
 2004 188   271    19    8.0    0.0    8.0   0.00   2.97    7.8    7.7    0.3    3.0   2.97   1.29    0.00    0.02
 2004 189   272    20   10.5    0.0   10.5   0.00   3.46   10.7   10.1    0.3    3.5   3.46   1.38    0.00    0.02
 2004 190   273    21   11.8    0.0   11.8   0.00   3.26   11.9   11.4    0.3    3.3   3.26   1.17    0.00    0.03
 2004 191   274    22   13.8    0.0   13.8   0.00   3.18   14.4   13.5    0.3    3.2   3.18   1.29    0.00    0.03
 2004 192   275    23   19.1    0.0   19.1   0.00   3.78   19.7   18.7    0.4    3.8   3.78   1.17    0.00    0.04
 2004 193   276    24   21.2    0.0   21.2   0.00   3.67   22.2   20.9    0.4    3.7   3.67   1.20    0.00    0.05
 2004 194   277    25   23.8    0.0   23.8   0.00   3.55   25.1   23.4    0.4    3.5   3.55   1.21    0.00    0.06
 2004 195   278    26   27.2    0.0   27.2   0.00   3.49   29.6   26.7    0.5    3.5   3.49   1.33    0.00    0.07
 2004 196   279    27   30.2    0.0   30.2   0.00   3.45   32.2   29.6    0.7    3.4   3.45   1.12    0.00    0.09
 2004 197   280    28   33.7    0.0   33.7   0.00   3.40   36.7   32.7    1.0    3.4   3.40   1.25    0.00    0.10
[...]
 2004 254   337    85  116.2   45.6   70.6   1.71   1.15  130.5   32.8   37.7    1.1   1.15   0.63    0.00    2.39
 2004 255   338    86  116.2   47.9   68.3   1.71   1.11  130.7   31.8   36.5    1.1   1.11   0.64    0.00    2.45
 2004 256   339    87  116.3   50.1   66.2   1.70   1.07  130.9   30.8   35.4    1.1   1.07   0.64    0.00    2.52
 2004 257   340    88  116.3   52.3   64.0   1.70   1.04  131.1   29.8   34.2    1.0   1.04   0.63    0.00    2.58
 2004 258   341    89  116.3   54.4   61.9   1.69   1.00  131.1   28.8   33.1    1.0   1.00   0.61    0.00    2.65
 2004 259   342    90  116.2   56.5   59.8   1.68   0.97  131.2   27.8   32.0    1.0   0.97   0.61    0.00    2.72
 2004 260   343    91  116.2   58.5   57.7   1.67   0.94  131.2   26.9   30.9    0.9   0.94   0.61    0.00    2.72
 2004 261   344    92  116.2   60.5   55.7   1.66   0.90  131.2   25.9   29.8    0.9   0.90   0.60    0.00    2.72
 2004 262   345    93  116.2   62.2   54.0   1.66   0.88  131.2   25.1   28.9    0.9   0.88   0.59    0.00    2.72
 2004 263   346    94  116.2   64.0   52.2   1.65   0.85  131.2   24.3   27.9    0.8   0.85   0.58    0.00    2.72
 2004 264   347    95  116.2   65.9   50.3   1.64   0.82  131.2   23.4   26.9    0.8   0.82   0.58    0.00    2.78
 2004 265   348    96  116.2   67.7   48.5   1.62   0.79  131.3   22.6   25.9    0.8   0.79   0.59    0.00    2.85
 2004 266   349    97  116.2   69.5   46.7   1.61   0.76  131.3   21.7   25.0    0.8   0.76   0.58    0.00    2.92
 2004 267   350    98  116.2   69.5   46.7   1.61   0.76  131.3   21.7   25.0    0.8   0.76   0.58    0.00    2.92
 2004 268   351    99  116.2   69.5   46.7   1.61   0.76  131.3   21.7   25.0    0.8   0.76   0.58    0.00    2.92
 2004 269   352   100  116.2   69.5   46.7   1.61   0.76  131.3   21.7   25.0    0.8   0.76   0.58    0.00    2.92
 2004 270   353   101  116.2   69.5   46.7   1.61   0.76  131.3   21.7   25.0    0.8   0.76   0.58    0.00    2.92
 2004 271   354   102  116.2   69.5   46.7   1.61   0.76  131.3   21.7   25.0    0.8   0.76   0.58    0.00    2.92
 2004 272   355   103  116.2   69.5   46.7   1.61   0.76  131.3   21.7   25.0    0.8   0.76   0.58    0.00    2.92
 2004 273   356   104  116.2   69.5   46.7   1.61   0.76  131.3   21.7   25.0    0.8   0.76   0.58    0.00    2.92
 2004 274   357   105  116.2   69.5   46.7   1.61   0.76  131.3   21.7   25.0    0.8   0.76   0.58    0.00    2.92
 2004 275   358   106  116.2   69.5   46.7   1.61   0.76  131.3   21.7   25.0    0.8   0.76   0.58    0.00    2.92
 2004 276   359   107  116.2   69.5   46.7   1.61   0.76  131.3   21.7   25.0    0.8   0.76   0.58    0.00    2.92
 2004 277   360   108  116.2   69.5   46.7   1.61   0.76  131.3   21.7   25.0    0.8   0.76   0.58    0.00    2.92
 2004 278   361   109  116.2   69.5   46.7   1.61   0.76  131.3   21.7   25.0    0.8   0.76   0.58    0.00    2.92
 2004 279   362   110  116.2   69.5   46.7   1.61   0.76  131.3   21.7   25.0    0.8   0.76   0.58    0.00    2.92
 2004 280   363   111  116.2   69.5   46.7   1.61   0.76  131.3   21.7   25.0    0.8   0.76   0.58    0.00    2.92
 2004 281   364   112  116.2   69.5   46.7   1.61   0.76  131.3   21.7   25.0    0.8   0.76   0.58    0.00    2.92
 2004 282   365   113  116.2   69.5   46.7   1.61   0.76  131.3   21.7   25.0    0.8   0.76   0.58    0.00    2.92
 2004 283   366   114  116.2   69.5   46.7   1.61   0.76  131.3   21.7   25.0    0.8   0.76   0.58    0.00    2.92
 2004 284   367   115  116.2   69.5   46.7   1.61   0.76  131.3   21.7   25.0    0.8   0.76   0.58    0.00    2.92
 2004 285   368   116  116.2   69.5   46.7   1.61   0.76  131.3   21.7   25.0    0.8   0.76   0.58    0.00    2.92
 2004 286   369   117  116.2   69.5   46.7   1.61   0.76  131.3   21.7   25.0    0.8   0.76   0.58    0.00    2.92
 2004 287   370   118  116.2   69.5   46.7   1.61   0.76  131.3   21.7   25.0    0.8   0.76   0.58    0.00    2.92
 2004 288   371   119  116.2   69.5   46.7   1.61   0.76  131.3   21.7   25.0    0.8   0.76   0.58    0.00    2.92
 2004 289   372   120  116.2   69.5   46.7   1.61   0.76  131.3   21.7   25.0    0.8   0.76   0.58    0.00    2.92
 2004 290   373   121  116.2   69.5   46.7   1.61   0.76  131.3   21.7   25.0    0.8   0.76   0.58    0.00    2.92
 2004 291   374   122  116.2   69.5   46.7   1.61   0.76  131.3   21.7   25.0    0.8   0.76   0.58    0.00    2.92
 2004 292   375   123  116.2   69.5   46.7   1.61   0.76  131.3   21.7   25.0    0.8   0.76   0.58    0.00    2.92
 2004 293   376   124  116.2   69.5   46.7   1.61   0.76  131.3   21.7   25.0    0.8   0.76   0.58    0.00    2.92
 2004 294   377   125  116.2   69.5   46.7   1.61   0.76  131.3   21.7   25.0    0.8   0.76   0.58    0.00    2.92

*DSSAT Cropping System Model Ver. 4.5.1.023 -Stub         DEC 04, 2014; 01:35:45
                                                                                
*RUN   9        : N120 P90                  MZCER045 GHWA0401    9              
 MODEL          : MZCER045 - Maize                                              
 EXPERIMENT     : GHWA0401 MZ ON-STATION NXP (EXPERIMENT NO.2) 9 TRT            
 DATA PATH      :                                                               
 TREATMENT  9   : N120 P90                  MZCER045                            
  
@YEAR DOY   DAS   DAP   CNAD   GNAD   VNAD   GN%D   VN%D   NUPC   LNAD   SNAD   LN%D   SN%D   RN%D   SNN0C   SNN1C
 2004 169   252     0    0.0    0.0    0.0   0.00   0.00    0.0    0.0    0.0    0.0   0.00   0.00    0.00    0.00
 2004 170   253     1    0.0    0.0    0.0   0.00   0.00    0.0    0.0    0.0    0.0   0.00   0.00    0.00    0.00
 2004 171   254     2    0.0    0.0    0.0   0.00   0.00    0.0    0.0    0.0    0.0   0.00   0.00    0.00    0.00
 2004 172   255     3    0.0    0.0    0.0   0.00   0.00    0.0    0.0    0.0    0.0   0.00   0.00    0.00    0.00
 2004 173   256     4    0.0    0.0    0.0   0.00   0.00    0.0    0.0    0.0    0.0   0.00   0.00    0.00    0.00
 2004 174   257     5    0.9    0.0    0.9   0.00   4.40    0.0    0.4    0.4    4.4   4.40   2.20    0.00    0.00
 2004 175   258     6    0.9    0.0    0.9   0.00   4.40    0.0    0.4    0.4    4.4   4.40   2.11    0.00    0.00
 2004 176   259     7    0.9    0.0    0.9   0.00   4.40    0.0    0.4    0.4    4.4   4.40   1.94    0.00    0.00
 2004 177   260     8    0.9    0.0    0.9   0.00   4.40    0.0    0.4    0.4    4.4   4.40   1.74    0.00    0.00
 2004 178   261     9    0.9    0.0    0.9   0.00   3.68    0.0    0.5    0.4    3.7   3.68   1.63    0.00    0.00
 2004 179   262    10    1.0    0.0    1.0   0.00   3.35    0.1    0.7    0.3    3.3   3.35   1.26    0.00    0.00
 2004 180   263    11    1.3    0.0    1.3   0.00   3.41    0.4    1.0    0.3    3.4   3.41   1.16    0.00    0.00
 2004 181   264    12    1.6    0.0    1.6   0.00   3.46    0.8    1.3    0.3    3.5   3.46   1.25    0.00    0.00
 2004 182   265    13    2.0    0.0    2.0   0.00   3.14    1.1    1.6    0.3    3.1   3.14   1.17    0.00    0.00
 2004 183   266    14    2.6    0.0    2.6   0.00   3.14    1.9    2.2    0.3    3.1   3.14   1.33    0.00    0.01
 2004 184   267    15    3.3    0.0    3.3   0.00   3.16    2.7    3.0    0.3    3.2   3.16   1.23    0.00    0.01
 2004 185   268    16    4.3    0.0    4.3   0.00   3.55    3.6    3.9    0.4    3.6   3.55   1.14    0.00    0.01
 2004 186   269    17    4.8    0.0    4.8   0.00   3.01    4.2    4.5    0.3    3.0   3.01   1.23    0.00    0.01
 2004 187   270    18    6.3    0.0    6.3   0.00   3.04    5.8    6.0    0.3    3.0   3.04   1.23    0.00    0.01
 2004 188   271    19    8.0    0.0    8.0   0.00   2.97    7.8    7.7    0.3    3.0   2.97   1.29    0.00    0.02
 2004 189   272    20   10.5    0.0   10.5   0.00   3.46   10.7   10.1    0.3    3.5   3.46   1.38    0.00    0.02
 2004 190   273    21   11.8    0.0   11.8   0.00   3.26   11.9   11.5    0.3    3.3   3.26   1.17    0.00    0.03
 2004 191   274    22   13.8    0.0   13.8   0.00   3.18   14.4   13.5    0.3    3.2   3.18   1.29    0.00    0.03
 2004 192   275    23   19.1    0.0   19.1   0.00   3.78   19.7   18.7    0.4    3.8   3.78   1.17    0.00    0.04
 2004 193   276    24   21.3    0.0   21.3   0.00   3.67   22.2   21.0    0.4    3.7   3.67   1.20    0.00    0.05
 2004 194   277    25   23.9    0.0   23.9   0.00   3.55   25.2   23.5    0.4    3.5   3.55   1.21    0.00    0.06
 2004 195   278    26   27.4    0.0   27.4   0.00   3.49   29.7   26.9    0.5    3.5   3.49   1.33    0.00    0.07
 2004 196   279    27   30.5    0.0   30.5   0.00   3.45   32.4   29.8    0.7    3.4   3.45   1.12    0.00    0.09
 2004 197   280    28   34.0    0.0   34.0   0.00   3.40   37.0   33.0    1.0    3.4   3.40   1.25    0.00    0.10
 2004 198   281    29   37.8    0.0   37.8   0.00   3.35   41.2   36.4    1.4    3.3   3.35   1.20    0.00    0.12
 2004 199   282    30   41.3    0.0   41.3   0.00   3.30   44.4   39.3    2.0    3.3   3.30   1.10    0.00    0.15
 2004 200   283    31   45.1    0.0   45.1   0.00   3.26   49.1   42.4    2.8    3.3   3.26   1.18    0.00    0.17
 2004 201   284    32   50.4    0.0   50.4   0.00   3.22   55.3   46.4    4.1    3.2   3.22   1.22    0.00    0.19
 2004 202   285    33   54.1    0.0   54.1   0.00   3.15   59.0   48.9    5.2    3.2   3.15   1.13    0.00    0.22
 2004 203   286    34   57.9    0.0   57.9   0.00   3.11   62.5   51.3    6.5    3.1   3.11   1.08    0.00    0.25
 2004 204   287    35   62.6    0.0   62.6   0.00   3.06   68.5   54.3    8.3    3.1   3.06   1.18    0.00    0.27
 2004 205   288    36   67.6    0.0   67.6   0.00   3.02   74.6   57.2   10.5    3.0   3.02   1.20    0.00    0.31
 2004 206   289    37   71.4    0.0   71.4   0.00   2.98   77.7   59.1   12.3    3.0   2.98   1.08    0.00    0.35
 2004 207   290    38   76.6    0.0   76.6   0.00   2.93   84.0   61.7   14.9    2.9   2.93   1.15    0.00    0.38
 2004 208   291    39   81.7    0.0   81.7   0.00   2.89   89.5   64.1   17.7    2.9   2.89   1.13    0.00    0.42
 2004 209   292    40   86.0    0.0   86.0   0.00   2.89   93.9   66.1   19.9    2.9   2.89   1.11    0.00    0.47
 2004 210   293    41   90.4    0.0   90.4   0.00   2.80   98.2   67.3   23.1    2.8   2.80   1.08    0.00    0.51
 2004 211   294    42   96.3    0.0   96.3   0.00   2.76  104.7   69.5   26.8    2.8   2.76   1.11    0.00    0.55
 2004 212   295    43  101.3    0.0  101.3   0.00   2.73  109.7   71.2   30.2    2.7   2.73   1.08    0.00    0.60
 2004 213   296    44  106.0    0.0  106.0   0.00   2.67  114.4   73.2   32.8    2.7   2.67   1.08    0.00    0.64
 2004 214   297    45  108.3    0.0  108.3   0.00   2.54  117.3   72.9   35.5    2.5   2.54   1.05    0.00    0.68
 2004 215   298    46  111.0    0.0  111.0   0.00   2.49  120.4   73.4   37.6    2.5   2.49   1.05    0.00    0.73
 2004 216   299    47  113.1    0.0  113.1   0.00   2.41  122.9   73.1   40.0    2.4   2.41   1.00    0.00    0.78
 2004 217   300    48  114.8    0.0  114.8   0.00   2.35  124.7   72.7   42.0    2.4   2.35   1.01    0.00    0.83
 2004 218   301    49  115.9    0.0  115.9   0.00   2.27  126.0   72.0   43.9    2.3   2.27   0.98    0.00    0.88
 2004 219   302    50  116.7    0.0  116.7   0.00   2.20  127.0   71.1   45.6    2.2   2.20   0.98    0.00    0.93
 2004 220   303    51  117.4    0.0  117.4   0.00   2.13  127.8   70.4   47.0    2.1   2.13   0.93    0.00    0.99
 2004 221   304    52  118.0    0.0  118.0   0.00   2.08  128.5   69.9   48.1    2.1   2.08   0.93    0.00    1.04
 2004 222   305    53  118.2    0.0  118.2   0.00   2.03  128.8   69.2   49.0    2.0   2.03   0.93    0.00    1.09
 2004 223   306    54  118.3    0.0  118.3   0.00   1.99  129.0   68.8   49.6    2.0   1.99   0.92    0.00    1.14
 2004 224   307    55  118.4    0.0  118.4   0.00   1.95  129.1   68.5   49.9    2.0   1.95   0.92    0.00    1.20
 2004 225   308    56  118.4    0.0  118.4   0.00   1.93  129.2   68.8   49.6    1.9   1.93   0.89    0.00    1.25
 2004 226   309    57  118.8    0.0  118.8   0.00   1.89  129.6   66.7   52.1    1.9   1.89   0.89    0.00    1.30
 2004 227   310    58  118.8    0.0  118.8   0.00   1.87  129.6   65.5   53.3    1.9   1.87   0.88    0.00    1.30
 2004 228   311    59  118.8    0.0  118.8   0.00   1.84  129.6   63.6   55.2    1.8   1.84   0.88    0.00    1.30
 2004 229   312    60  118.8    0.0  118.8   0.00   1.82  129.6   62.1   56.6    1.8   1.82   0.87    0.00    1.30
 2004 230   313    61  118.8    0.0  118.8   0.00   1.81  129.6   61.1   57.7    1.8   1.81   0.87    0.00    1.30
 2004 231   314    62  118.8    0.0  118.8   0.00   1.81  129.6   59.9   58.8    1.8   1.81   0.86    0.00    1.30
 2004 232   315    63  118.8    0.0  118.8   0.00   1.79  129.6   58.6   60.2    1.8   1.79   0.85    0.00    1.30
 2004 233   316    64  118.8    0.0  118.8   0.00   1.79  129.6   57.5   61.2    1.8   1.79   0.85    0.00    1.36
 2004 234   317    65  118.8    0.0  118.8   0.00   1.80  129.7   56.6   62.2    1.8   1.80   0.85    0.00    1.41
 2004 235   318    66  119.0    0.0  119.0   0.00   1.80  130.1   55.8   63.2    1.8   1.80   0.86    0.00    1.46
 2004 236   319    67  119.0    2.4  116.6   1.70   1.77  130.1   54.7   61.9    1.8   1.77   0.85    0.00    1.52
 2004 237   320    68  119.0    4.7  114.3   1.70   1.73  130.1   53.6   60.7    1.7   1.73   0.82    0.00    1.52
 2004 238   321    69  119.0    7.1  111.9   1.71   1.70  130.1   52.4   59.4    1.7   1.70   0.78    0.00    1.52
 2004 239   322    70  119.0    9.5  109.5   1.71   1.66  130.1   51.3   58.2    1.7   1.66   0.76    0.00    1.52
 2004 240   323    71  119.0   11.9  107.1   1.72   1.62  130.1   50.2   56.9    1.6   1.62   0.73    0.00    1.52
 2004 241   324    72  119.0   14.2  104.7   1.72   1.59  130.1   49.1   55.6    1.6   1.59   0.72    0.00    1.52
 2004 242   325    73  118.9   16.6  102.3   1.72   1.55  130.1   47.9   54.3    1.6   1.55   0.69    0.00    1.57
 2004 243   326    74  118.9   19.0   99.8   1.72   1.51  130.2   46.8   53.0    1.5   1.51   0.66    0.00    1.62
 2004 244   327    75  119.0   21.4   97.5   1.72   1.48  130.4   45.7   51.8    1.5   1.48   0.66    0.00    1.68
 2004 245   328    76  118.9   23.8   95.1   1.72   1.44  130.4   44.6   50.5    1.4   1.44   0.64    0.00    1.73
 2004 246   329    77  118.9   26.1   92.8   1.72   1.41  130.6   43.5   49.3    1.4   1.41   0.65    0.00    1.79
 2004 247   330    78  118.9   28.4   90.5   1.71   1.37  130.6   42.4   48.1    1.4   1.37   0.62    0.00    1.84
 2004 248   331    79  118.9   30.7   88.1   1.71   1.34  130.6   41.3   46.8    1.3   1.34   0.61    0.00    1.90
 2004 249   332    80  118.9   33.0   85.8   1.71   1.30  130.6   40.2   45.6    1.3   1.30   0.59    0.00    1.90
 2004 250   333    81  118.9   35.3   83.5   1.70   1.27  130.6   39.1   44.4    1.3   1.27   0.58    0.00    1.90
 2004 251   334    82  118.8   37.6   81.2   1.70   1.23  130.6   38.1   43.1    1.2   1.23   0.57    0.00    1.95
 2004 252   335    83  118.8   39.9   78.9   1.70   1.20  130.7   37.0   41.9    1.2   1.20   0.55    0.00    2.01
 2004 253   336    84  118.8   42.1   76.6   1.69   1.16  130.7   35.9   40.7    1.2   1.16   0.55    0.00    2.06
 2004 254   337    85  118.8   44.4   74.4   1.69   1.13  130.8   34.9   39.5    1.1   1.13   0.55    0.00    2.12
 2004 255   338    86  118.8   46.6   72.3   1.68   1.10  131.0   33.9   38.4    1.1   1.10   0.55    0.00    2.17
 2004 256   339    87  118.8   48.7   70.2   1.68   1.06  131.2   32.9   37.3    1.1   1.06   0.55    0.00    2.23
 2004 257   340    88  118.9   50.8   68.1   1.67   1.03  131.4   31.9   36.2    1.0   1.03   0.54    0.00    2.28
 2004 258   341    89  118.9   52.9   66.0   1.66   1.00  131.5   30.9   35.1    1.0   1.00   0.53    0.00    2.34
 2004 259   342    90  118.9   55.0   63.9   1.66   0.97  131.5   29.9   33.9    1.0   0.97   0.53    0.00    2.40
 2004 260   343    91  118.9   57.0   61.9   1.65   0.94  131.5   29.0   32.9    0.9   0.94   0.53    0.00    2.40
 2004 261   344    92  118.9   59.0   59.9   1.64   0.91  131.5   28.1   31.8    0.9   0.91   0.52    0.00    2.40
 2004 262   345    93  118.9   60.6   58.2   1.63   0.88  131.5   27.3   30.9    0.9   0.88   0.51    0.00    2.40
 2004 263   346    94  118.9   62.4   56.4   1.63   0.86  131.5   26.4   30.0    0.9   0.86   0.50    0.00    2.40
 2004 264   347    95  118.8   64.3   54.5   1.62   0.83  131.5   25.6   29.0    0.8   0.83   0.50    0.00    2.45
 2004 265   348    96  118.8   66.1   52.7   1.61   0.80  131.6   24.7   28.0    0.8   0.80   0.50    0.00    2.51
 2004 266   349    97  118.8   67.9   50.9   1.60   0.77  131.6   23.8   27.0    0.8   0.77   0.50    0.00    2.57
 2004 267   350    98  118.8   67.9   50.9   1.60   0.77  131.6   23.8   27.0    0.8   0.77   0.50    0.00    2.57
 2004 268   351    99  118.8   67.9   50.9   1.60   0.77  131.6   23.8   27.0    0.8   0.77   0.50    0.00    2.57
 2004 269   352   100  118.8   67.9   50.9   1.60   0.77  131.6   23.8   27.0    0.8   0.77   0.50    0.00    2.57
 2004 270   353   101  118.8   67.9   50.9   1.60   0.77  131.6   23.8   27.0    0.8   0.77   0.50    0.00    2.57
 2004 271   354   102  118.8   67.9   50.9   1.60   0.77  131.6   23.8   27.0    0.8   0.77   0.50    0.00    2.57
 2004 272   355   103  118.8   67.9   50.9   1.60   0.77  131.6   23.8   27.0    0.8   0.77   0.50    0.00    2.57
 2004 273   356   104  118.8   67.9   50.9   1.60   0.77  131.6   23.8   27.0    0.8   0.77   0.50    0.00    2.57
 2004 274   357   105  118.8   67.9   50.9   1.60   0.77  131.6   23.8   27.0    0.8   0.77   0.50    0.00    2.57
 2004 275   358   106  118.8   67.9   50.9   1.60   0.77  131.6   23.8   27.0    0.8   0.77   0.50    0.00    2.57
 2004 276   359   107  118.8   67.9   50.9   1.60   0.77  131.6   23.8   27.0    0.8   0.77   0.50    0.00    2.57
 2004 277   360   108  118.8   67.9   50.9   1.60   0.77  131.6   23.8   27.0    0.8   0.77   0.50    0.00    2.57
 2004 278   361   109  118.8   67.9   50.9   1.60   0.77  131.6   23.8   27.0    0.8   0.77   0.50    0.00    2.57
 2004 279   362   110  118.8   67.9   50.9   1.60   0.77  131.6   23.8   27.0    0.8   0.77   0.50    0.00    2.57
 2004 280   363   111  118.8   67.9   50.9   1.60   0.77  131.6   23.8   27.0    0.8   0.77   0.50    0.00    2.57
 2004 281   364   112  118.8   67.9   50.9   1.60   0.77  131.6   23.8   27.0    0.8   0.77   0.50    0.00    2.57
 2004 282   365   113  118.8   67.9   50.9   1.60   0.77  131.6   23.8   27.0    0.8   0.77   0.50    0.00    2.57
 2004 283   366   114  118.8   67.9   50.9   1.60   0.77  131.6   23.8   27.0    0.8   0.77   0.50    0.00    2.57
 2004 284   367   115  118.8   67.9   50.9   1.60   0.77  131.6   23.8   27.0    0.8   0.77   0.50    0.00    2.57
 2004 285   368   116  118.8   67.9   50.9   1.60   0.77  131.6   23.8   27.0    0.8   0.77   0.50    0.00    2.57
 2004 286   369   117  118.8   67.9   50.9   1.60   0.77  131.6   23.8   27.0    0.8   0.77   0.50    0.00    2.57
 2004 287   370   118  118.8   67.9   50.9   1.60   0.77  131.6   23.8   27.0    0.8   0.77   0.50    0.00    2.57
 2004 288   371   119  118.8   67.9   50.9   1.60   0.77  131.6   23.8   27.0    0.8   0.77   0.50    0.00    2.57
 2004 289   372   120  118.8   67.9   50.9   1.60   0.77  131.6   23.8   27.0    0.8   0.77   0.50    0.00    2.57
 2004 290   373   121  118.8   67.9   50.9   1.60   0.77  131.6   23.8   27.0    0.8   0.77   0.50    0.00    2.57
 2004 291   374   122  118.8   67.9   50.9   1.60   0.77  131.6   23.8   27.0    0.8   0.77   0.50    0.00    2.57
 2004 292   375   123  118.8   67.9   50.9   1.60   0.77  131.6   23.8   27.0    0.8   0.77   0.50    0.00    2.57
 2004 293   376   124  118.8   67.9   50.9   1.60   0.77  131.6   23.8   27.0    0.8   0.77   0.50    0.00    2.57
 2004 294   377   125  118.8   67.9   50.9   1.60   0.77  131.6   23.8   27.0    0.8   0.77   0.50    0.00    2.57
