*GROWTH ASPECTS OUTPUT FILE

*DSSAT Cropping System Model Ver. 4.5.1.023 -Stub         OCT 13, 2014; 10:39:36
                                                                                
*RUN   1        : N0 P0                     MZCER045 GHWA0401    1              
 MODEL          : MZCER045 - Maize                                              
 EXPERIMENT     : GHWA0401 MZ                                                   
 DATA PATH      :                                                               
 TREATMENT  1   : N0 P0                     MZCER045                            
  
!                                                                                                                                                                                                                                      Root Dens. (cm/cm3) by soil depth (cm):
!                                                                                                                                                                                                                                      0-5    5-15   15-20   20-30   30-40   40-50   50-60   60-90
@YEAR DOY   DAS   DAP   L#SD   GSTD   LAID   LWAD   SWAD   GWAD   RWAD   VWAD   CWAD   G#AD   GWGD   HIAD   PWAD   P#AD   WSPD   WSGD   NSTD   EWSD  PST1A  PST2A   KSTD   LN%D   SH%D   HIPD   PWDD   PWTD     SLAD   CHTD   CWID   RDPD    RL1D    RL2D    RL3D    RL4D    RL5D    RL6D    RL7D    RL8D   CDAD   LDAD   SDAD   SNW0C   SNW1C  DTTD
 2004 169   252     0    0.0      0   0.00      0      0      0      0      0      0      0    0.0  0.000      0      0  0.000  0.000  0.000  0.000  0.000  0.000  0.000   0.00   0.00   0.00      0      0      0.0   0.00   0.00   0.05    0.00    0.00    0.00    0.00    0.00    0.00    0.00    0.00      0      0      0       0       0 17.60
 2004 170   253     1    0.0      0   0.00      0      0      0      0      0      0      0    0.0  0.000      0      0  0.000  0.000  0.000  0.000  0.000  0.000  0.000   0.00   0.00   0.00      0      0      0.0   0.00   0.00   0.08    0.00    0.00    0.00    0.00    0.00    0.00    0.00    0.00      0      0      0       0       0 20.58
 2004 171   254     2    0.0      0   0.00      0      0      0      0      0      0      0    0.0  0.000      0      0  0.000  0.000  0.000  0.000  0.000  0.000  0.000   0.00   0.00   0.00      0      0      0.0   0.00   0.00   0.11    0.00    0.00    0.00    0.00    0.00    0.00    0.00    0.00      0      0      0       0       0 21.38
 2004 172   255     3    0.0      0   0.00      0      0      0      0      0      0      0    0.0  0.000      0      0  0.000  0.000  0.000  0.000  0.000  0.000  0.000   0.00   0.00   0.00      0      0      0.0   0.00   0.00   0.14    0.00    0.00    0.00    0.00    0.00    0.00    0.00    0.00      0      0      0       0       0 21.05
 2004 173   256     4    0.0      0   0.00      0      0      0      0      0      0      0    0.0  0.000      0      0  0.000  0.000  0.000  0.000  0.000  0.000  0.000   0.00   0.00   0.00      0      0      0.0   0.00   0.00   0.17    0.00    0.00    0.00    0.00    0.00    0.00    0.00    0.00      0      0      0       0       0 18.54
 2004 174   257     5    2.0      1   0.00     10     10      0     10     20     20      0    0.0  0.000      0      0  0.000  0.000  0.012  0.000  0.000  0.000  0.000   4.40   0.00   0.00      0      0     34.6   0.00   0.00   0.19    0.20    0.10    0.09    0.00    0.00    0.00    0.00    0.00      0      0      0       0       0 18.82
 2004 175   258     6    2.0      1   0.01     10     10      0     10     20     20      0    0.0  0.000      0      0  0.000  0.000  0.013  0.000  0.000  0.000  0.000   4.40   0.00   0.00      0      0     74.6   0.00   0.00   0.21    0.20    0.10    0.09    0.00    0.00    0.00    0.00    0.00      0      0      0       0       0 20.59
 2004 176   259     7    3.0      1   0.01     10     10      0     11     20     20      0    0.0  0.000      0      0  0.000  0.000  0.007  0.000  0.000  0.000  0.000   4.40   0.00   0.00      0      0    119.4   0.01   0.00   0.23    0.22    0.10    0.10    0.00    0.00    0.00    0.00    0.00      0      0      0       0       0 20.09
 2004 177   260     8    4.0      1   0.03     10     10      0     13     20     20      0    0.0  0.000      0      0  0.000  0.000  0.001  0.000  0.000  0.000  0.000   4.40   0.00   0.00      0      0    257.8   0.02   0.00   0.24    0.24    0.11    0.12    0.01    0.00    0.00    0.00    0.00      0      0      0       0       0 18.46
 2004 178   261     9    4.0      1   0.04     14     10      0     14     24     24      0    0.0  0.000      0      0  0.000  0.000  0.000  0.000  0.086  0.269  0.000   3.68   0.00   0.00      0      0    321.3   0.03   0.00   0.26    0.24    0.11    0.12    0.01    0.00    0.00    0.00    0.00      0      0      0       0       0 20.54
 2004 179   262    10    5.0      1   0.06     21     10      0     16     31     31      0    0.0  0.000      0      0  0.000  0.000  0.000  0.000  0.122  0.298  0.000   3.35   0.00   0.00      0      0    296.2   0.04   0.00   0.27    0.25    0.13    0.15    0.03    0.00    0.00    0.00    0.00      0      0      0       0       0 20.56
 2004 180   263    11    5.0      1   0.08     28     10      0     17     38     38      0    0.0  0.000      0      0  0.000  0.000  0.000  0.000  0.270  0.416  0.000   3.41   0.00   0.00      0      0    277.3   0.05   0.00   0.29    0.25    0.13    0.17    0.04    0.00    0.00    0.00    0.00      0      0      0       0       0 19.33
 2004 181   264    12    6.0      1   0.09     36     10      0     19     46     46      0    0.0  0.000      0      0  0.000  0.000  0.000  0.000  0.335  0.468  0.000   3.55   0.00   0.00      0      0    262.3   0.06   0.00   0.30    0.27    0.14    0.18    0.06    0.00    0.00    0.00    0.00      0      0      0       0       0 18.36
 2004 182   265    13    6.0      1   0.11     44     10      0     21     54     54      0    0.0  0.000      0      0  0.000  0.000  0.000  0.000  0.261  0.409  0.000   3.53   0.00   0.00      0      0    248.4   0.07   0.00   0.31    0.27    0.14    0.20    0.07    0.00    0.00    0.00    0.00      0      0      0       0       0 19.45
 2004 183   266    14    7.0      1   0.13     55     10      0     26     65     65      0    0.0  0.000      0      0  0.000  0.000  0.000  0.000  0.381  0.505  0.000   3.42   0.00   0.00      0      0    236.1   0.08   0.00   0.33    0.27    0.14    0.24    0.12    0.02    0.00    0.00    0.00      0      0      0       0       0 19.44
 2004 184   267    15    7.0      1   0.15     66     10      0     29     76     76      0    0.0  0.000      0      0  0.000  0.000  0.000  0.000  0.480  0.584  0.000   3.48   0.00   0.00      0      0    224.8   0.10   0.00   0.36    0.28    0.15    0.24    0.14    0.05    0.00    0.00    0.00      0      0      0       0       1 19.51
 2004 185   268    16    8.0      1   0.16     74     10      0     30     84     84      0    0.0  0.000      0      0  0.000  0.000  0.000  0.000  0.369  0.495  0.000   3.62   0.00   0.00      0      0    215.3   0.10   0.00   0.38    0.27    0.15    0.24    0.15    0.06    0.00    0.00    0.00      0      0      0       0       1 16.13
 2004 186   269    17    8.0      1   0.18     88     10      0     33     98     98      0    0.0  0.000      0      0  0.000  0.000  0.000  0.000  0.429  0.543  0.000   3.42   0.00   0.00      0      0    206.3   0.12   0.00   0.41    0.28    0.15    0.24    0.17    0.11    0.00    0.00    0.00      0      0      0       0       1 18.62
 2004 187   270    18    9.0      1   0.21    104     10      0     36    114    114      0    0.0  0.000      0      0  0.000  0.000  0.000  0.000  0.455  0.564  0.000   3.34   0.00   0.00      0      0    197.5   0.13   0.00   0.43    0.26    0.14    0.23    0.16    0.13    0.01    0.00    0.00      0      0      0       0       1 20.26
 2004 188   271    19    9.0      1   0.23    122     10      0     41    132    132      0    0.0  0.000      0      0  0.000  0.000  0.003  0.007  0.497  0.598  0.000   3.29   0.00   0.00      0      0    189.3   0.15   0.00   0.46    0.25    0.14    0.23    0.15    0.17    0.04    0.00    0.00      0      0      0       0       1 20.62
 2004 189   272    20   10.0      2   0.26    131     10      0     48    141    141      0    0.0  0.000      0      0  0.000  0.000  0.008  0.026  0.405  0.524  0.000   3.55   0.00   0.00      0      0    197.2   0.17   0.00   0.48    0.25    0.15    0.23    0.15    0.20    0.09    0.00    0.00      0      0      0       0       1 18.53
 2004 190   273    21   10.0      2   0.28    149     10      0     51    159    159      0    0.0  0.000      0      0  0.000  0.000  0.018  0.059  0.462  0.569  0.000   3.41   0.00   0.00      0      0    190.7   0.18   0.00   0.50    0.25    0.15    0.22    0.15    0.19    0.12    0.00    0.00      0      0      0       0       2 18.50
 2004 191   274    22   10.0      2   0.32    174     10      0     55    184    184      0    0.0  0.000      0      0  0.000  0.000  0.000  0.074  0.566  0.653  0.000   3.21   0.00   0.00      0      0    183.5   0.21   0.00   0.53    0.24    0.15    0.22    0.14    0.19    0.14    0.02    0.00      0      0      0       0       2 20.09
 2004 192   275    23   11.0      2   0.33    189     10      0     58    199    199      0    0.0  0.000      0      0  0.000  0.000  0.003  0.100  0.529  0.623  0.000   3.32   0.00   0.00      0      0    177.1   0.22   0.00   0.55    0.23    0.15    0.21    0.14    0.18    0.14    0.04    0.00      0      0      0       0       2 17.66
 2004 193   276    24   11.0      3   0.36    212     10      0     59    222    222      0    0.0  0.000      0      0  0.000  0.000  0.011  0.114  0.587  0.670  0.000   3.25   0.00   0.00      0      0    169.1   0.23   0.00   0.57    0.22    0.14    0.20    0.13    0.17    0.13    0.05    0.00      0      0      0       0       2 16.90
 2004 194   277    25   12.0      3   0.39    237     10      0     60    247    247      0    0.0  0.000      0      0  0.000  0.000  0.000  0.078  0.681  0.745  0.000   3.08   0.00   0.00      0      0    163.0   0.25   0.00   0.59    0.22    0.14    0.20    0.13    0.17    0.13    0.06    0.00      0      0      0       0       3 16.40
 2004 195   278    26   12.0      3   0.41    260     11      0     65    271    271      0    0.0  0.000      0      0  0.000  0.020  0.010  0.114  0.698  0.759  0.000   2.95   0.00   0.00      0      0    156.8   0.26   0.00   0.61    0.22    0.15    0.20    0.13    0.17    0.13    0.09    0.00      0      0      0       0       3 18.90
 2004 196   279    27   13.0      3   0.41    274     12      0     65    286    286      0    0.0  0.000      0      0  0.000  0.000  0.034  0.089  0.676  0.741  0.000   2.88   0.00   0.00      0      0    151.1   0.27   0.00   0.61    0.21    0.14    0.19    0.12    0.15    0.12    0.09    0.00      0      0      0       0       3 16.15
 2004 197   280    28   13.0      3   0.43    297     14      0     68    310    310      0    0.0  0.000      0      0  0.000  0.000  0.058  0.074  0.719  0.775  0.000   2.70   0.00   0.00      0      0    146.0   0.28   0.00   0.61    0.20    0.14    0.19    0.12    0.15    0.11    0.08    0.00      0      0      0       0       4 17.85
 2004 198   281    29   14.0      3   0.45    317     16      0     69    334    334      0    0.0  0.000      0      0  0.000  0.000  0.067  0.060  0.748  0.798  0.000   2.57   0.00   0.00      0      0    140.9   0.29   0.00   0.61    0.19    0.13    0.18    0.11    0.14    0.11    0.08    0.00      0      0      0       0       4 18.65
 2004 199   282    30   14.0      3   0.45    328     18      0     70    346    346      0    0.0  0.000      0      0  0.000  0.000  0.088  0.059  0.696  0.757  0.000   2.53   0.00   0.00      0      0    135.8   0.29   0.00   0.61    0.18    0.13    0.17    0.10    0.13    0.10    0.07    0.00      0      0      0       0       4 16.70
 2004 200   283    31   14.0      3   0.46    347     22      0     71    370    370      0    0.0  0.000      0      0  0.000  0.006  0.104  0.067  0.714  0.771  0.000   2.40   0.00   0.00      0      0    131.6   0.30   0.00   0.61    0.17    0.12    0.16    0.10    0.12    0.09    0.07    0.00      0      0      0       0       5 17.45
 2004 201   284    32   15.0      3   0.47    371     29      0     72    400    400      0    0.0  0.000      0      0  0.124  0.416  0.106  0.053  0.762  0.809  0.000   2.25   0.00   0.00      0      0    127.7   0.31   0.00   0.61    0.17    0.12    0.15    0.09    0.11    0.09    0.07    0.00      0      0      0       0       5 21.32
 2004 202   285    33   15.0      3   0.47    383     34      0     73    417    417      0    0.0  0.000      0      0  0.000  0.009  0.122  0.051  0.744  0.796  0.000   2.19   0.00   0.00      0      0    123.3   0.31   0.00   0.61    0.16    0.11    0.14    0.09    0.11    0.08    0.06    0.00      0      0      0       0       5 17.50
 2004 203   286    34   16.0      3   0.47    392     38      0     73    430    430      0    0.0  0.000      0      0  0.000  0.000  0.141  0.053  0.691  0.753  0.000   2.17   0.00   0.00      0      0    119.1   0.31   0.00   0.61    0.15    0.11    0.14    0.08    0.10    0.07    0.06    0.00      0      0      0       0       6 17.80
 2004 204   287    35   16.0      3   0.48    412     48      0     74    460    460      0    0.0  0.000      0      0  0.038  0.359  0.143  0.063  0.722  0.778  0.000   2.04   0.00   0.00      0      0    116.0   0.31   0.00   0.61    0.14    0.11    0.13    0.08    0.10    0.07    0.06    0.00      0      0      0       0       6 17.70
 2004 205   288    36   17.0      3   0.49    431     60      0     76    491    491      0    0.0  0.000      0      0  0.196  0.465  0.146  0.050  0.757  0.806  0.000   1.93   0.00   0.00      0      0    112.8   0.32   0.00   0.61    0.14    0.10    0.13    0.08    0.09    0.07    0.05    0.00      0      0      0       0       7 18.30
 2004 206   289    37   17.0      3   0.48    439     65      0     76    504    504      0    0.0  0.000      0      0  0.000  0.000  0.162  0.049  0.718  0.774  0.000   1.90   0.00   0.00      0      0    109.0   0.32   0.00   0.61    0.13    0.10    0.12    0.07    0.09    0.06    0.05    0.00      0      0      0       0       7 17.05
 2004 207   290    38   18.0      3   0.48    454     78      0     77    531    531      0    0.0  0.000      0      0  0.289  0.526  0.176  0.047  0.731  0.785  0.000   1.82   0.00   0.00      0      0    106.0   0.32   0.00   0.61    0.12    0.10    0.12    0.07    0.08    0.06    0.05    0.00      0      0      0       0       7 17.95
 2004 208   291    39   18.0      3   0.48    466     89      0     78    555    555      0    0.0  0.000      0      0  0.325  0.551  0.176  0.045  0.730  0.784  0.000   1.76   0.00   0.00      0      0    102.9   0.32   0.00   0.61    0.12    0.10    0.11    0.07    0.08    0.06    0.05    0.00      0      0      0       0       8 17.90
 2004 209   292    40   19.0      3   0.47    476     99      0     79    575    575      0    0.0  0.000      0      0  0.326  0.551  0.184  0.036  0.696  0.757  0.000   1.72   0.00   0.00      0      0     99.8   0.32   0.00   0.61    0.12    0.09    0.11    0.06    0.07    0.05    0.04    0.00      0      0      0       0       8 19.25
 2004 210   293    41   19.0      3   0.47    486    112      0     80    599    599      0    0.0  0.000      0      0  0.204  0.470  0.189  0.027  0.679  0.743  0.000   1.67   0.00   0.00      0      0     97.1   0.32   0.00   0.61    0.11    0.09    0.11    0.06    0.07    0.05    0.04    0.00      0      0      0       0       8 18.55
 2004 211   294    42   19.0      3   0.47    499    129      0     81    628    628      0    0.0  0.000      0      0  0.307  0.538  0.191  0.025  0.685  0.748  0.000   1.61   0.00   0.00      0      0     94.7   0.32   0.00   0.61    0.11    0.09    0.11    0.06    0.07    0.05    0.04    0.00      0      0      0       0       9 17.25
 2004 212   295    43   20.0      3   0.47    508    142      0     82    651    651      0    0.0  0.000      0      0  0.013  0.343  0.196  0.017  0.665  0.732  0.000   1.57   0.00   0.00      0      0     92.2   0.32   0.00   0.61    0.11    0.09    0.10    0.06    0.07    0.05    0.04    0.00      0      0      0       0       9 17.30
 2004 213   296    44   20.0      3   0.47    520    157      0     83    677    677      0    0.0  0.000      0      0  0.171  0.448  0.208  0.009  0.650  0.720  0.000   1.52   0.00   0.00      0      0     90.0   0.32   0.00   0.61    0.11    0.09    0.10    0.06    0.07    0.05    0.04    0.00      0      0      0       0      10 18.25
 2004 214   297    45   21.0      3   0.47    534    184      0     85    718    719      0    0.0  0.000      1      0  0.502  0.669  0.214  0.001  0.682  0.745  0.000   1.45   0.00   0.00      0      1     88.2   0.32   0.00   0.61    0.11    0.09    0.10    0.06    0.07    0.05    0.04    0.00      0      0      0       0      10 19.10
 2004 215   298    46   21.0      3   0.47    542    205      0     86    747    748      0    0.0  0.000      1      0  0.327  0.552  0.221  0.000  0.657  0.726  0.000   1.41   0.00   0.00      0      1     85.9   0.32   0.00   0.61    0.11    0.09    0.10    0.06    0.07    0.05    0.04    0.00      0      0      0       0      11 19.50
 2004 216   299    47   22.0      3   0.46    553    233      0     88    785    788      0    0.0  0.000      2      0  0.432  0.622  0.243  0.000  0.671  0.737  0.000   1.36   0.00   0.00      0      2     83.9   0.32   0.00   0.61    0.11    0.10    0.11    0.06    0.07    0.05    0.04    0.00      0      0      0       0      11 18.15
 2004 217   300    48   22.0      3   0.45    557    247      0     88    805    807      0    0.0  0.000      3      0  0.000  0.204  0.252  0.000  0.612  0.690  0.000   1.35   0.00   0.00      0      3     81.5   0.32   0.00   0.61    0.11    0.09    0.10    0.06    0.06    0.04    0.04    0.00      0      0      0       0      11 16.45
 2004 218   301    49   23.0      3   0.45    565    272      0     90    837    842      0    0.0  0.000      4      0  0.155  0.437  0.265  0.057  0.598  0.679  0.000   1.31   0.00   0.01      0      4     79.6   0.32   0.00   0.61    0.11    0.09    0.10    0.06    0.06    0.04    0.04    0.00      0      0      0       0      12 17.35
 2004 219   302    50   23.0      3   0.44    571    293      0     91    864    870      0    0.0  0.000      6      0  0.000  0.284  0.265  0.110  0.571  0.657  0.000   1.27   0.00   0.01      0      6     77.8   0.32   0.00   0.61    0.10    0.09    0.10    0.05    0.06    0.04    0.04    0.00      0      0      0       0      12 16.65
 2004 220   303    51   23.0      3   0.44    580    325      0     93    905    915      0    0.0  0.000     10      0  0.348  0.566  0.279  0.106  0.589  0.671  0.000   1.21   0.00   0.01      0     10     76.4   0.32   0.00   0.61    0.10    0.10    0.10    0.05    0.06    0.04    0.04    0.00      0      0      0       0      13 19.05
 2004 221   304    52   24.0      3   0.44    585    342      0     94    927    939      0    0.0  0.000     12      0  0.000  0.117  0.295  0.110  0.540  0.632  0.000   1.19   0.00   0.01      0     12     74.5   0.32   0.00   0.61    0.10    0.09    0.10    0.05    0.06    0.04    0.04    0.00      0      0      0       0      13 16.00
 2004 222   305    53   24.0      3   0.43    591    364      0     95    955    969      0    0.0  0.000     15      0  0.240  0.494  0.319  0.077  0.502  0.602  0.000   1.15   0.00   0.02      0     15     72.9   0.32   0.00   0.61    0.10    0.09    0.09    0.05    0.06    0.04    0.03    0.00      0      0      0       0      13 20.81
 2004 223   306    54   24.0      3   0.42    596    382      0     96    977    995      0    0.0  0.000     18      0  0.000  0.143  0.328  0.063  0.464  0.571  0.000   1.13   0.00   0.02      0     18     71.1   0.32   0.00   0.61    0.09    0.09    0.09    0.05    0.05    0.04    0.03    0.00      0      0      0       0      13 17.45
 2004 224   307    55   24.0      3   0.42    600    398      0     97    999   1020      0    0.0  0.000     21      0  0.000  0.055  0.343  0.065  0.423  0.539  0.000   1.10   0.00   0.02      0     21     69.4   0.32   0.00   0.61    0.09    0.09    0.09    0.05    0.05    0.03    0.03    0.00      0      0      0       0      14 16.10
 2004 225   308    56   24.0      3   0.41    609    423      0     99   1032   1065      0    0.0  0.000     33      0  0.231  0.488  0.353  0.055  0.429  0.543  0.000   1.07   0.00   0.03      0     33     68.0   0.32   0.00   0.61    0.10    0.09    0.09    0.05    0.05    0.04    0.03    0.00      0      0      0       0      14 17.50
 2004 226   309    57   24.0      4   0.40    601    471      0    101   1072   1119      0    0.0  0.000     47      0  0.416  0.611  0.361  0.103  0.470  0.576  0.000   1.03   0.00   0.04      0     47     66.8   0.32   0.00   0.61    0.10    0.09    0.10    0.05    0.06    0.04    0.03    0.00      0      0      0       0      15 18.35
 2004 227   310    58   24.0      4   0.39    592    493      0    102   1085   1139      0    0.0  0.000     54      0  0.000  0.134  0.369  0.101  0.485  0.588  0.000   1.02   0.00   0.05      0     54     65.6   0.32   0.00   0.61    0.09    0.09    0.09    0.05    0.05    0.03    0.03    0.00      0      0      0       0      15 16.50
 2004 228   311    59   24.0      4   0.38    582    532      0    104   1115   1182      0    0.0  0.000     67      0  0.373  0.582  0.385  0.101  0.534  0.627  0.000   0.99   0.00   0.06      0     67     64.6   0.32   0.00   0.61    0.10    0.09    0.10    0.05    0.05    0.03    0.03    0.00      0      0      0       0      15 18.25
 2004 229   312    60   24.0      4   0.36    572    561      0    105   1133   1211      0    0.0  0.000     78      0  0.199  0.467  0.383  0.066  0.559  0.647  0.000   0.98   0.00   0.06      0     78     63.6   0.32   0.00   0.61    0.09    0.09    0.09    0.05    0.05    0.03    0.03    0.00      0      0      0       0      15 17.00
 2004 230   313    61   24.0      4   0.35    561    579      0    106   1140   1225      0    0.0  0.000     84      0  0.000  0.239  0.392  0.057  0.559  0.648  0.000   0.97   0.00   0.07      0     84     62.7   0.32   0.00   0.61    0.09    0.09    0.09    0.05    0.05    0.03    0.03    0.00      0      0      0       0      15 17.85
 2004 231   314    62   24.0      4   0.34    549    601      0    106   1149   1242      0    0.0  0.000     93      0  0.083  0.389  0.393  0.049  0.564  0.651  0.000   0.96   0.00   0.07      0     93     62.0   0.32   0.00   0.61    0.09    0.08    0.09    0.05    0.05    0.03    0.03    0.00      0      0      0       0      15 17.80
 2004 232   315    63   24.0      4   0.33    536    629      0    107   1165   1269      0    0.0  0.000    104      0  0.442  0.628  0.385  0.040  0.579  0.663  0.000   0.95   0.00   0.08      0    104     61.4   0.32   0.00   0.61    0.09    0.08    0.09    0.05    0.05    0.03    0.03    0.00      0      0      0       0      15 18.90
 2004 233   316    64   24.0      4   0.32    523    644      0    108   1167   1277      0    0.0  0.000    110      0  0.000  0.268  0.380  0.033  0.570  0.656  0.000   0.95   0.00   0.09      0    110     60.9   0.32   0.00   0.61    0.08    0.08    0.08    0.04    0.05    0.03    0.03    0.00      0      0      0       0      15 17.05
 2004 234   317    65   24.0      4   0.31    509    656      0    108   1164   1280      0    0.0  0.000    115      0  0.000  0.193  0.378  0.027  0.540  0.632  0.000   0.95   0.00   0.09      0    115     60.5   0.32   0.00   0.61    0.08    0.08    0.08    0.04    0.04    0.03    0.03    0.00      0      0      0       0      16 18.00
 2004 235   318    66   24.0      4   0.30    494    669      0    108   1163   1284      0    0.0  0.000    121      0  0.133  0.422  0.363  0.101  0.482  0.586  0.000   0.96   0.00   0.09      0    121     60.4   0.32   0.00   0.61    0.08    0.07    0.08    0.04    0.04    0.03    0.03    0.00      0      0      0       0      16 18.60
 2004 236   319    67   24.0      5   0.29    494    658     33    108   1152   1306    244   13.4  0.025    154      5  0.000  0.072  0.346  0.100  0.490  0.592  0.000   0.95  21.22   0.12      0    154     58.5   0.32   0.00   0.61    0.08    0.07    0.08    0.04    0.04    0.03    0.03    0.00      0      0      0       0      17 15.35
 2004 237   320    68   24.0      5   0.28    494    667     49    112   1161   1332    244   20.3  0.037    171      5  0.147  0.432  0.362  0.065  0.506  0.605  0.000   0.92  28.97   0.13      0    171     56.7   0.32   0.00   0.61    0.09    0.09    0.09    0.05    0.05    0.03    0.03    0.00      0      0      0       0      17 16.10
 2004 238   321    69   24.0      5   0.27    494    669     66    117   1163   1349    244   26.9  0.049    187      5  0.185  0.457  0.353  0.086  0.503  0.602  0.000   0.91  35.13   0.14      0    187     54.9   0.32   0.00   0.61    0.11    0.11    0.11    0.06    0.06    0.04    0.04    0.00      0      0      0       0      17 19.10
 2004 239   322    70   24.0      5   0.26    494    669     84    119   1163   1368    244   34.4  0.061    205      5  0.000  0.011  0.360  0.096  0.502  0.602  0.000   0.90  40.91   0.15      0    205     53.1   0.32   0.00   0.61    0.11    0.11    0.11    0.06    0.06    0.04    0.04    0.00      0      0      0       0      17 17.45
 2004 240   323    71   24.0      5   0.25    494    669    102    122   1163   1386    244   41.9  0.074    223      5  0.000  0.158  0.362  0.063  0.500  0.600  0.000   0.88  45.75   0.16      0    223     51.4   0.32   0.00   0.61    0.12    0.11    0.12    0.06    0.06    0.04    0.04    0.00      0      0      0       0      17 18.45
 2004 241   324    72   24.0      5   0.25    494    669    120    122   1163   1404    244   49.4  0.086    242      5  0.000  0.000  0.363  0.056  0.496  0.597  0.000   0.87  49.85   0.17      0    242     49.8   0.32   0.00   0.61    0.11    0.11    0.11    0.06    0.06    0.04    0.04    0.00      0      0      0       0      17 18.20
 2004 242   325    73   24.0      5   0.24    494    669    139    125   1163   1423    244   56.9  0.098    260      5  0.000  0.251  0.365  0.047  0.494  0.595  0.000   0.85  53.38   0.18      0    260     48.2   0.32   0.00   0.61    0.12    0.12    0.12    0.06    0.06    0.04    0.04    0.00      0      0      0       0      17 18.80
 2004 243   326    74   24.0      5   0.23    494    669    157    129   1163   1441    244   64.4  0.109    278      5  0.000  0.261  0.366  0.038  0.497  0.598  0.000   0.84  56.44   0.19      0    278     46.7   0.32   0.00   0.61    0.13    0.13    0.13    0.07    0.07    0.04    0.04    0.00      0      0      0       0      17 18.70
 2004 244   327    75   24.0      5   0.22    494    669    175    130   1163   1459    244   71.9  0.120    296      5  0.000  0.000  0.368  0.067  0.496  0.597  0.000   0.83  59.12   0.20      0    296     45.2   0.32   0.00   0.61    0.12    0.12    0.12    0.07    0.07    0.04    0.04    0.00      0      0      0       0      18 18.35
 2004 245   328    76   24.0      5   0.22    494    669    194    130   1163   1477    244   79.4  0.131    315      5  0.000  0.000  0.367  0.053  0.499  0.599  0.000   0.82  61.50   0.21      0    315     43.7   0.32   0.00   0.61    0.12    0.12    0.12    0.06    0.06    0.04    0.04    0.00      0      0      0       0      18 18.50
 2004 246   329    77   24.0      5   0.21    494    666    212    130   1159   1492    244   86.9  0.142    333      5  0.000  0.000  0.372  0.101  0.488  0.591  0.000   0.81  63.61   0.22      0    333     42.3   0.32   0.00   0.61    0.12    0.12    0.12    0.06    0.06    0.04    0.04    0.00      0      0      0       0      19 15.50
 2004 247   330    78   24.0      5   0.20    494    669    230    133   1163   1514    244   94.4  0.152    351      5  0.000  0.108  0.373  0.097  0.483  0.587  0.000   0.79  65.50   0.23      0    351     41.0   0.32   0.00   0.61    0.12    0.12    0.12    0.07    0.07    0.04    0.04    0.00      0      0      0       0      19 17.85
 2004 248   331    79   24.0      5   0.20    494    669    248    134   1163   1532    244  101.9  0.162    370      5  0.000  0.000  0.374  0.097  0.475  0.580  0.000   0.78  67.21   0.24      0    370     39.7   0.32   0.00   0.61    0.12    0.12    0.12    0.06    0.06    0.04    0.04    0.00      0      0      0       0      19 16.95
 2004 249   332    80   24.0      5   0.19    494    669    267    137   1163   1550    244  109.4  0.172    388      5  0.000  0.032  0.382  0.064  0.472  0.577  0.000   0.76  68.75   0.25      0    388     38.4   0.32   0.00   0.61    0.12    0.12    0.12    0.07    0.07    0.04    0.04    0.00      0      0      0       0      19 17.85
 2004 250   333    81   24.0      5   0.18    494    669    285    137   1163   1569    244  116.9  0.182    406      5  0.000  0.000  0.386  0.069  0.474  0.579  0.000   0.75  70.16   0.26      0    406     37.1   0.32   0.00   0.61    0.12    0.12    0.12    0.06    0.06    0.04    0.04    0.00      0      0      0       0      19 18.45
 2004 251   334    82   24.0      5   0.18    494    669    303    136   1163   1587    244  124.4  0.191    424      5  0.000  0.000  0.392  0.066  0.483  0.587  0.000   0.74  71.44   0.27      0    424     35.9   0.32   0.00   0.61    0.11    0.11    0.11    0.06    0.06    0.04    0.04    0.00      0      0      0       0      19 17.40
 2004 252   335    83   24.0      5   0.17    494    669    321    137   1163   1605    244  131.9  0.200    443      5  0.000  0.000  0.397  0.056  0.493  0.594  0.000   0.72  72.62   0.28      0    443     34.7   0.32   0.00   0.61    0.11    0.10    0.11    0.06    0.06    0.03    0.03    0.00      0      0      0       0      19 18.65
 2004 253   336    84   24.0      5   0.17    494    668    340    136   1161   1622    244  139.4  0.209    461      5  0.000  0.000  0.403  0.047  0.496  0.597  0.000   0.71  73.71   0.28      0    461     33.5   0.32   0.00   0.61    0.11    0.10    0.11    0.06    0.06    0.03    0.03    0.00      0      0      0       0      20 18.80
 2004 254   337    85   24.0      5   0.16    494    665    358    136   1159   1638    244  146.9  0.219    479      5  0.000  0.000  0.405  0.047  0.492  0.594  0.000   0.71  74.71   0.29      0    479     32.4   0.32   0.00   0.61    0.11    0.10    0.11    0.06    0.06    0.03    0.03    0.00      0      0      0       0      21 18.40
 2004 255   338    86   24.0      5   0.15    494    660    376    135   1154   1652    244  154.4  0.228    498      5  0.000  0.000  0.404  0.050  0.475  0.580  0.000   0.70  75.64   0.30      0    498     31.3   0.32   0.00   0.61    0.11    0.10    0.11    0.06    0.06    0.03    0.03    0.00      0      0      0       0      21 18.65
 2004 256   339    87   24.0      5   0.15    494    656    395    134   1150   1665    244  161.9  0.237    516      5  0.000  0.000  0.404  0.068  0.463  0.571  0.000   0.70  76.50   0.31      0    516     30.3   0.32   0.00   0.61    0.11    0.10    0.11    0.06    0.06    0.03    0.03    0.00      0      0      0       0      22 16.80
 2004 257   340    88   24.0      5   0.14    494    659    413    135   1152   1686    244  169.3  0.245    534      5  0.000  0.000  0.395  0.095  0.462  0.569  0.000   0.69  77.30   0.32      0    534     29.3   0.32   0.00   0.61    0.10    0.10    0.10    0.05    0.05    0.03    0.03    0.00      0      0      0       0      23 19.10
 2004 258   341    89   24.0      5   0.14    494    662    431    136   1155   1707    244  176.8  0.252    552      5  0.000  0.000  0.390  0.095  0.474  0.579  0.000   0.68  78.05   0.32      0    552     28.3   0.32   0.00   0.61    0.10    0.10    0.10    0.05    0.05    0.03    0.03    0.00      0      0      0       0      23 13.65
 2004 259   342    90   24.0      5   0.14    494    658    449    135   1151   1722    244  184.3  0.261    570      5  0.000  0.000  0.398  0.096  0.465  0.572  0.000   0.67  78.75   0.33      0    570     27.4   0.32   0.00   0.61    0.10    0.10    0.10    0.05    0.05    0.03    0.03    0.00      0      0      0       0      24 17.80
 2004 260   343    91   24.0      5   0.13    494    652    467    134   1146   1734    244  191.8  0.270    589      5  0.000  0.000  0.408  0.089  0.456  0.565  0.000   0.66  79.41   0.34      0    589     26.4   0.32   0.00   0.61    0.10    0.10    0.10    0.05    0.05    0.03    0.03    0.00      0      0      0       0      24 16.80
 2004 261   344    92   24.0      5   0.13    494    652    486    134   1145   1752    244  199.3  0.277    607      5  0.000  0.000  0.414  0.063  0.452  0.562  0.000   0.64  80.03   0.35      0    607     25.5   0.32   0.00   0.61    0.10    0.10    0.10    0.05    0.05    0.03    0.03    0.00      0      0      0       0      24 18.65
 2004 262   345    93   24.0      5   0.12    494    655    501    135   1149   1771    244  205.5  0.283    622      5  0.000  0.000  0.418  0.051  0.444  0.555  0.000   0.63  80.52   0.35      0    622     24.7   0.32   0.00   0.61    0.10    0.10    0.10    0.05    0.05    0.03    0.03    0.00      0      0      0       0      24 20.40
 2004 263   346    94   24.0      5   0.12    494    656    518    134   1149   1788    244  212.4  0.289    639      5  0.000  0.000  0.425  0.056  0.433  0.546  0.000   0.62  81.03   0.36      0    639     23.8   0.32   0.00   0.61    0.09    0.09    0.09    0.05    0.05    0.03    0.03    0.00      0      0      0       0      24 19.65
 2004 264   347    95   24.0      5   0.11    494    650    536    134   1143   1800    244  219.9  0.298    657      5  0.000  0.000  0.444  0.071  0.429  0.543  0.000   0.61  81.56   0.36      0    657     23.0   0.32   0.00   0.61    0.09    0.09    0.09    0.05    0.05    0.03    0.03    0.00      0      0      0       0      25 15.45
 2004 265   348    96   24.0      5   0.11    494    641    554    133   1135   1810    244  227.4  0.306    675      5  0.000  0.000  0.458  0.086  0.426  0.541  0.000   0.60  82.05   0.37      0    675     22.2   0.32   0.00   0.61    0.09    0.09    0.09    0.05    0.05    0.03    0.03    0.00      0      0      0       0      25 16.15
 2004 266   349    97   24.0      5   0.11    494    641    572    132   1135   1828    244  234.9  0.313    694      5  0.000  0.000  0.464  0.059  0.437  0.550  0.000   0.59  82.53   0.38      0    694     21.4   0.32   0.00   0.61    0.08    0.08    0.08    0.04    0.04    0.03    0.03    0.00      0      0      0       0      25 17.85
 2004 267   350    98   24.0      5   0.11    494    641    572    132   1135   1828    244  234.9  0.313    694      5  0.000  0.000  0.469  0.057  0.437  0.550  0.000   0.59  82.53   0.38      0    694     21.4   0.32   0.00   0.61    0.08    0.07    0.08    0.04    0.04    0.02    0.02    0.00      0      0      0       0      25 18.80
 2004 268   351    99   24.0      5   0.11    494    641    572    132   1135   1828    244  234.9  0.313    694      5  0.000  0.000  0.469  0.047  0.437  0.550  0.000   0.59  82.53   0.38      0    694     21.4   0.32   0.00   0.61    0.07    0.07    0.07    0.04    0.04    0.02    0.02    0.00      0      0      0       0      25 18.75
 2004 269   352   100   24.0      5   0.11    494    641    572    132   1135   1828    244  234.9  0.313    694      5  0.000  0.000  0.469  0.047  0.437  0.550  0.000   0.59  82.53   0.38      0    694     21.4   0.32   0.00   0.61    0.06    0.06    0.06    0.03    0.03    0.02    0.02    0.00      0      0      0       0      25  0.00
 2004 270   353   101   24.0      5   0.11    494    641    572    132   1135   1828    244  234.9  0.313    694      5  0.000  0.000  0.469  0.047  0.437  0.550  0.000   0.59  82.53   0.38      0    694     21.4   0.32   0.00   0.61    0.06    0.06    0.06    0.03    0.03    0.02    0.02    0.00      0      0      0       0      25 18.00
 2004 271   354   102   24.0      5   0.11    494    641    572    132   1135   1828    244  234.9  0.313    694      5  0.000  0.000  0.469  0.047  0.437  0.550  0.000   0.59  82.53   0.38      0    694     21.4   0.32   0.00   0.61    0.05    0.05    0.05    0.03    0.03    0.02    0.02    0.00      0      0      0       0      25 18.15
 2004 272   355   103   24.0      5   0.11    494    641    572    132   1135   1828    244  234.9  0.313    694      5  0.000  0.000  0.469  0.047  0.437  0.550  0.000   0.59  82.53   0.38      0    694     21.4   0.32   0.00   0.61    0.05    0.05    0.05    0.02    0.02    0.01    0.01    0.00      0      0      0       0      25 20.82
 2004 273   356   104   24.0      5   0.11    494    641    572    132   1135   1828    244  234.9  0.313    694      5  0.000  0.000  0.469  0.047  0.437  0.550  0.000   0.59  82.53   0.38      0    694     21.4   0.32   0.00   0.61    0.05    0.04    0.05    0.02    0.02    0.01    0.01    0.00      0      0      0       0      25 21.01
 2004 274   357   105   24.0      5   0.11    494    641    572    132   1135   1828    244  234.9  0.313    694      5  0.000  0.000  0.469  0.047  0.437  0.550  0.000   0.59  82.53   0.38      0    694     21.4   0.32   0.00   0.61    0.04    0.04    0.04    0.02    0.02    0.01    0.01    0.00      0      0      0       0      25 19.00
 2004 275   358   106   24.0      5   0.11    494    641    572    132   1135   1828    244  234.9  0.313    694      5  0.000  0.000  0.469  0.047  0.437  0.550  0.000   0.59  82.53   0.38      0    694     21.4   0.32   0.00   0.61    0.04    0.04    0.04    0.02    0.02    0.01    0.01    0.00      0      0      0       0      25 19.00
 2004 276   359   107   24.0      5   0.11    494    641    572    132   1135   1828    244  234.9  0.313    694      5  0.000  0.000  0.469  0.047  0.437  0.550  0.000   0.59  82.53   0.38      0    694     21.4   0.32   0.00   0.61    0.04    0.03    0.04    0.02    0.02    0.01    0.01    0.00      0      0      0       0      25 18.95
 2004 277   360   108   24.0      5   0.11    494    641    572    132   1135   1828    244  234.9  0.313    694      5  0.000  0.000  0.469  0.047  0.437  0.550  0.000   0.59  82.53   0.38      0    694     21.4   0.32   0.00   0.61    0.03    0.03    0.03    0.01    0.01    0.01    0.01    0.00      0      0      0       0      25 20.45
 2004 278   361   109   24.0      5   0.11    494    641    572    132   1135   1828    244  234.9  0.313    694      5  0.000  0.000  0.469  0.047  0.437  0.550  0.000   0.59  82.53   0.38      0    694     21.4   0.32   0.00   0.61    0.03    0.03    0.03    0.01    0.01    0.01    0.01    0.00      0      0      0       0      25 20.80
 2004 279   362   110   24.0      5   0.11    494    641    572    132   1135   1828    244  234.9  0.313    694      5  0.000  0.000  0.469  0.047  0.437  0.550  0.000   0.59  82.53   0.38      0    694     21.4   0.32   0.00   0.61    0.03    0.03    0.03    0.01    0.01    0.01    0.01    0.00      0      0      0       0      25 18.40
 2004 280   363   111   24.0      5   0.11    494    641    572    132   1135   1828    244  234.9  0.313    694      5  0.000  0.000  0.469  0.047  0.437  0.550  0.000   0.59  82.53   0.38      0    694     21.4   0.32   0.00   0.61    0.03    0.02    0.03    0.01    0.01    0.01    0.01    0.00      0      0      0       0      25 19.75
 2004 281   364   112   24.0      5   0.11    494    641    572    132   1135   1828    244  234.9  0.313    694      5  0.000  0.000  0.469  0.047  0.437  0.550  0.000   0.59  82.53   0.38      0    694     21.4   0.32   0.00   0.61    0.02    0.02    0.02    0.01    0.01    0.00    0.00    0.00      0      0      0       0      25 20.74
 2004 282   365   113   24.0      5   0.11    494    641    572    132   1135   1828    244  234.9  0.313    694      5  0.000  0.000  0.469  0.047  0.437  0.550  0.000   0.59  82.53   0.38      0    694     21.4   0.32   0.00   0.61    0.02    0.02    0.02    0.01    0.01    0.00    0.00    0.00      0      0      0       0      25 20.95
 2004 283   366   114   24.0      5   0.11    494    641    572    132   1135   1828    244  234.9  0.313    694      5  0.000  0.000  0.469  0.047  0.437  0.550  0.000   0.59  82.53   0.38      0    694     21.4   0.32   0.00   0.61    0.02    0.02    0.02    0.01    0.01    0.00    0.00    0.00      0      0      0       0      25 20.74
 2004 284   367   115   24.0      5   0.11    494    641    572    132   1135   1828    244  234.9  0.313    694      5  0.000  0.000  0.469  0.047  0.437  0.550  0.000   0.59  82.53   0.38      0    694     21.4   0.32   0.00   0.61    0.02    0.02    0.02    0.01    0.01    0.00    0.00    0.00      0      0      0       0      25 20.92
 2004 285   368   116   24.0      5   0.11    494    641    572    132   1135   1828    244  234.9  0.313    694      5  0.000  0.000  0.469  0.047  0.437  0.550  0.000   0.59  82.53   0.38      0    694     21.4   0.32   0.00   0.61    0.02    0.02    0.02    0.01    0.01    0.00    0.00    0.00      0      0      0       0      25 19.25
 2004 286   369   117   24.0      5   0.11    494    641    572    132   1135   1828    244  234.9  0.313    694      5  0.000  0.000  0.469  0.047  0.437  0.550  0.000   0.59  82.53   0.38      0    694     21.4   0.32   0.00   0.61    0.02    0.02    0.02    0.01    0.01    0.00    0.00    0.00      0      0      0       0      25 20.38
 2004 287   370   118   24.0      5   0.11    494    641    572    132   1135   1828    244  234.9  0.313    694      5  0.000  0.000  0.469  0.047  0.437  0.550  0.000   0.59  82.53   0.38      0    694     21.4   0.32   0.00   0.61    0.01    0.01    0.01    0.00    0.00    0.00    0.00    0.00      0      0      0       0      25 20.74
 2004 288   371   119   24.0      5   0.11    494    641    572    132   1135   1828    244  234.9  0.313    694      5  0.000  0.000  0.469  0.047  0.437  0.550  0.000   0.59  82.53   0.38      0    694     21.4   0.32   0.00   0.61    0.01    0.01    0.01    0.00    0.00    0.00    0.00    0.00      0      0      0       0      25 21.50
 2004 289   372   120   24.0      5   0.11    494    641    572    132   1135   1828    244  234.9  0.313    694      5  0.000  0.000  0.469  0.047  0.437  0.550  0.000   0.59  82.53   0.38      0    694     21.4   0.32   0.00   0.61    0.01    0.01    0.01    0.00    0.00    0.00    0.00    0.00      0      0      0       0      25 20.55
 2004 290   373   121   24.0      5   0.11    494    641    572    132   1135   1828    244  234.9  0.313    694      5  0.000  0.000  0.469  0.047  0.437  0.550  0.000   0.59  82.53   0.38      0    694     21.4   0.32   0.00   0.61    0.01    0.01    0.01    0.00    0.00    0.00    0.00    0.00      0      0      0       0      25 20.91
 2004 291   374   122   24.0      5   0.11    494    641    572    132   1135   1828    244  234.9  0.313    694      5  0.000  0.000  0.469  0.047  0.437  0.550  0.000   0.59  82.53   0.38      0    694     21.4   0.32   0.00   0.61    0.01    0.01    0.01    0.00    0.00    0.00    0.00    0.00      0      0      0       0      25 21.17
 2004 292   375   123   24.0      5   0.11    494    641    572    132   1135   1828    244  234.9  0.313    694      5  0.000  0.000  0.469  0.047  0.437  0.550  0.000   0.59  82.53   0.38      0    694     21.4   0.32   0.00   0.61    0.01    0.01    0.01    0.00    0.00    0.00    0.00    0.00      0      0      0       0      25 21.31
 2004 293   376   124   24.0      5   0.11    494    641    572    132   1135   1828    244  234.9  0.313    694      5  0.000  0.000  0.469  0.047  0.437  0.550  0.000   0.59  82.53   0.38      0    694     21.4   0.32   0.00   0.61    0.01    0.01    0.01    0.00    0.00    0.00    0.00    0.00      0      0      0       0      25 21.23
 2004 294   377   125   24.0      5   0.11    494    641    572    132   1135   1828    244  234.9  0.313    694      5  0.000  0.000  0.469  0.047  0.437  0.550  0.000   0.59  82.53   0.38      0    694     21.4   0.32   0.00   0.61    0.01    0.01    0.01    0.00    0.00    0.00    0.00    0.00      0      0      0       0      25 21.49

*DSSAT Cropping System Model Ver. 4.5.1.023 -Stub         OCT 13, 2014; 10:39:37
                                                                                
*RUN   2        : N0 P60                    MZCER045 GHWA0401    2              
 MODEL          : MZCER045 - Maize                                              
 EXPERIMENT     : GHWA0401 MZ                                                   
 DATA PATH      :                                                               
 TREATMENT  2   : N0 P60                    MZCER045                            
  
!                                                                                                                                                                                                                                      Root Dens. (cm/cm3) by soil depth (cm):
!                                                                                                                                                                                                                                      0-5    5-15   15-20   20-30   30-40   40-50   50-60   60-90
@YEAR DOY   DAS   DAP   L#SD   GSTD   LAID   LWAD   SWAD   GWAD   RWAD   VWAD   CWAD   G#AD   GWGD   HIAD   PWAD   P#AD   WSPD   WSGD   NSTD   EWSD  PST1A  PST2A   KSTD   LN%D   SH%D   HIPD   PWDD   PWTD     SLAD   CHTD   CWID   RDPD    RL1D    RL2D    RL3D    RL4D    RL5D    RL6D    RL7D    RL8D   CDAD   LDAD   SDAD   SNW0C   SNW1C  DTTD
 2004 169   252     0    0.0      0   0.00      0      0      0      0      0      0      0    0.0  0.000      0      0  0.000  0.000  0.000  0.000  0.000  0.000  0.000   0.00   0.00   0.00      0      0      0.0   0.00   0.00   0.05    0.00    0.00    0.00    0.00    0.00    0.00    0.00    0.00      0      0      0       0       0 17.60
 2004 170   253     1    0.0      0   0.00      0      0      0      0      0      0      0    0.0  0.000      0      0  0.000  0.000  0.000  0.000  0.000  0.000  0.000   0.00   0.00   0.00      0      0      0.0   0.00   0.00   0.08    0.00    0.00    0.00    0.00    0.00    0.00    0.00    0.00      0      0      0       0       0 20.58
 2004 171   254     2    0.0      0   0.00      0      0      0      0      0      0      0    0.0  0.000      0      0  0.000  0.000  0.000  0.000  0.000  0.000  0.000   0.00   0.00   0.00      0      0      0.0   0.00   0.00   0.11    0.00    0.00    0.00    0.00    0.00    0.00    0.00    0.00      0      0      0       0       0 21.38
 2004 172   255     3    0.0      0   0.00      0      0      0      0      0      0      0    0.0  0.000      0      0  0.000  0.000  0.000  0.000  0.000  0.000  0.000   0.00   0.00   0.00      0      0      0.0   0.00   0.00   0.14    0.00    0.00    0.00    0.00    0.00    0.00    0.00    0.00      0      0      0       0       0 21.05
 2004 173   256     4    0.0      0   0.00      0      0      0      0      0      0      0    0.0  0.000      0      0  0.000  0.000  0.000  0.000  0.000  0.000  0.000   0.00   0.00   0.00      0      0      0.0   0.00   0.00   0.17    0.00    0.00    0.00    0.00    0.00    0.00    0.00    0.00      0      0      0       0       0 18.54
 2004 174   257     5    2.0      1   0.00     10     10      0     10     20     20      0    0.0  0.000      0      0  0.000  0.000  0.012  0.000  0.000  0.000  0.000   4.40   0.00   0.00      0      0     34.6   0.00   0.00   0.19    0.20    0.10    0.09    0.00    0.00    0.00    0.00    0.00      0      0      0       0       0 18.82
 2004 175   258     6    2.0      1   0.01     10     10      0     10     20     20      0    0.0  0.000      0      0  0.000  0.000  0.013  0.000  0.000  0.000  0.000   4.40   0.00   0.00      0      0     74.6   0.00   0.00   0.21    0.20    0.10    0.09    0.00    0.00    0.00    0.00    0.00      0      0      0       0       0 20.59
 2004 176   259     7    3.0      1   0.01     10     10      0     11     20     20      0    0.0  0.000      0      0  0.000  0.000  0.007  0.000  0.000  0.000  0.000   4.40   0.00   0.00      0      0    119.4   0.01   0.00   0.23    0.22    0.11    0.10    0.00    0.00    0.00    0.00    0.00      0      0      0       0       0 20.09
 2004 177   260     8    4.0      1   0.03     10     10      0     13     20     20      0    0.0  0.000      0      0  0.000  0.000  0.001  0.000  0.000  0.000  0.000   4.40   0.00   0.00      0      0    257.8   0.02   0.00   0.24    0.24    0.11    0.11    0.00    0.00    0.00    0.00    0.00      0      0      0       0       0 18.46
 2004 178   261     9    4.0      1   0.04     14     10      0     14     24     24      0    0.0  0.000      0      0  0.000  0.000  0.000  0.000  0.086  0.269  0.000   3.68   0.00   0.00      0      0    321.3   0.03   0.00   0.26    0.24    0.12    0.12    0.01    0.00    0.00    0.00    0.00      0      0      0       0       0 20.54
 2004 179   262    10    5.0      1   0.06     21     10      0     16     31     31      0    0.0  0.000      0      0  0.000  0.000  0.000  0.000  0.116  0.293  0.000   3.35   0.00   0.00      0      0    296.2   0.04   0.00   0.27    0.25    0.13    0.15    0.02    0.00    0.00    0.00    0.00      0      0      0       0       0 20.56
 2004 180   263    11    5.0      1   0.08     28     10      0     17     38     38      0    0.0  0.000      0      0  0.000  0.000  0.000  0.000  0.148  0.318  0.000   3.41   0.00   0.00      0      0    277.3   0.05   0.00   0.29    0.26    0.14    0.16    0.03    0.00    0.00    0.00    0.00      0      0      0       0       0 19.33
 2004 181   264    12    6.0      1   0.10     37     10      0     20     47     47      0    0.0  0.000      0      0  0.000  0.000  0.000  0.000  0.000  0.034  0.000   3.46   0.00   0.00      0      0    262.2   0.06   0.00   0.30    0.28    0.15    0.18    0.05    0.00    0.00    0.00    0.00      0      0      0       0       0 18.36
 2004 182   265    13    6.0      1   0.13     52     10      0     22     62     62      0    0.0  0.000      0      0  0.000  0.000  0.000  0.000  0.000  0.000  0.000   3.14   0.00   0.00      0      0    245.2   0.08   0.00   0.31    0.28    0.15    0.21    0.07    0.00    0.00    0.00    0.00      0      0      0       0       0 19.45
 2004 183   266    14    7.0      1   0.16     72     10      0     29     82     82      0    0.0  0.000      0      0  0.000  0.000  0.000  0.000  0.000  0.000  0.000   3.14   0.00   0.00      0      0    229.7   0.11   0.00   0.33    0.28    0.15    0.28    0.14    0.03    0.00    0.00    0.00      0      0      0       0       0 19.44
 2004 184   267    15    7.0      1   0.21     95     10      0     34    105    105      0    0.0  0.000      0      0  0.000  0.000  0.000  0.000  0.000  0.000  0.000   3.16   0.00   0.00      0      0    216.6   0.13   0.00   0.36    0.29    0.16    0.30    0.18    0.07    0.00    0.00    0.00      0      0      0       0       1 19.51
 2004 185   268    16    8.0      1   0.25    110     10      0     37    120    120      0    0.0  0.000      0      0  0.000  0.000  0.000  0.000  0.000  0.000  0.000   3.55   0.00   0.00      0      0    224.8   0.16   0.00   0.38    0.29    0.16    0.30    0.20    0.10    0.00    0.00    0.00      0      0      0       0       1 16.13
 2004 186   269    17    8.0      1   0.31    149     10      0     43    159    159      0    0.0  0.000      0      0  0.000  0.000  0.000  0.000  0.000  0.000  0.000   3.01   0.00   0.00      0      0    211.0   0.20   0.00   0.41    0.29    0.16    0.30    0.23    0.18    0.00    0.00    0.00      0      0      0       0       1 18.62
 2004 187   270    18    9.0      1   0.39    196     10      0     51    206    206      0    0.0  0.000      0      0  0.000  0.000  0.000  0.000  0.000  0.000  0.000   2.94   0.00   0.00      0      0    199.3   0.25   0.00   0.43    0.28    0.16    0.29    0.22    0.26    0.03    0.00    0.00      0      0      0       0       1 20.26
 2004 188   271    19    9.0      1   0.46    260     10      0     65    270    270      0    0.0  0.000      0      0  0.000  0.000  0.011  0.017  0.000  0.000  0.000   2.61   0.00   0.00      0      0    175.9   0.30   0.00   0.46    0.29    0.18    0.30    0.22    0.35    0.12    0.00    0.00      0      0      0       0       1 20.62
 2004 189   272    20   10.0      2   0.52    284     10      0     93    294    294      0    0.0  0.000      0      0  0.000  0.000  0.063  0.056  0.000  0.000  0.000   2.69   0.00   0.00      0      0    184.0   0.34   0.00   0.48    0.34    0.24    0.35    0.25    0.39    0.41    0.00    0.00      0      0      0       0       2 18.53
 2004 190   273    21   10.0      2   0.57    323     10      0    107    333    333      0    0.0  0.000      0      0  0.000  0.000  0.137  0.133  0.000  0.000  0.000   2.61   0.00   0.00      0      0    176.9   0.37   0.00   0.50    0.37    0.27    0.38    0.26    0.39    0.51    0.00    0.00      0      0      0       0       2 18.50
 2004 191   274    22   10.0      2   0.63    373     10      0    134    383    383      0    0.0  0.000      0      0  0.000  0.000  0.124  0.142  0.000  0.000  0.000   2.41   0.00   0.00      0      0    170.1   0.41   0.00   0.53    0.43    0.34    0.44    0.29    0.41    0.55    0.17    0.00      0      0      0       0       3 20.09
 2004 192   275    23   11.0      2   0.69    418     10      0    149    428    428      0    0.0  0.000      0      0  0.000  0.000  0.142  0.176  0.000  0.000  0.000   2.34   0.00   0.00      0      0    164.2   0.45   0.00   0.55    0.45    0.36    0.46    0.30    0.41    0.54    0.29    0.00      0      0      0       0       3 17.66
 2004 193   276    24   11.0      3   0.73    464     10      0    169    474    474      0    0.0  0.000      0      0  0.000  0.000  0.157  0.188  0.000  0.000  0.000   2.24   0.00   0.00      0      0    157.2   0.47   0.00   0.57    0.49    0.40    0.49    0.32    0.42    0.53    0.43    0.00      0      0      0       0       4 16.90
 2004 194   277    25   12.0      3   0.78    516     11      0    193    527    527      0    0.0  0.000      0      0  0.000  0.000  0.163  0.128  0.000  0.000  0.000   2.08   0.00   0.00      0      0    151.8   0.51   0.00   0.59    0.59    0.51    0.59    0.37    0.47    0.55    0.47    0.00      0      0      0       0       5 16.40
 2004 195   278    26   12.0      3   0.84    573     13      0    242    586    586      0    0.0  0.000      0      0  0.000  0.000  0.182  0.166  0.000  0.000  0.000   1.93   0.00   0.00      0      0    146.5   0.55   0.00   0.61    0.80    0.72    0.80    0.48    0.58    0.61    0.54    0.00      0      0      0       0       6 18.90
 2004 196   279    27   13.0      3   0.88    618     15      0    257    633    633      0    0.0  0.000      0      0  0.000  0.000  0.213  0.106  0.000  0.000  0.000   1.81   0.00   0.00      0      0    141.6   0.57   0.00   0.61    0.81    0.74    0.81    0.48    0.57    0.58    0.52    0.00      0      0      0       0       7 16.15
 2004 197   280    28   13.0      3   0.90    662     19      0    294    680    680      0    0.0  0.000      0      0  0.000  0.000  0.289  0.083  0.000  0.000  0.000   1.70   0.00   0.00      0      0    136.7   0.59   0.00   0.61    0.92    0.85    0.92    0.54    0.62    0.60    0.54    0.00      0      0      0       0       8 17.85
 2004 198   281    29   14.0      3   0.93    704     24      0    324    728    728      0    0.0  0.000      0      0  0.000  0.000  0.336  0.063  0.000  0.000  0.000   1.60   0.00   0.00      0      0    131.9   0.60   0.00   0.61    0.99    0.93    0.99    0.57    0.65    0.60    0.55    0.00      0      0      0       0      10 18.65
 2004 199   282    30   14.0      3   0.94    739     30      0    334    768    768      0    0.0  0.000      0      0  0.000  0.000  0.374  0.054  0.000  0.000  0.000   1.54   0.00   0.00      0      0    127.4   0.61   0.00   0.61    0.96    0.90    0.96    0.55    0.62    0.57    0.52    0.00      0      0      0       0      12 16.70
 2004 200   283    31   14.0      3   0.95    773     37      0    358    810    810      0    0.0  0.000      0      0  0.000  0.000  0.407  0.075  0.000  0.000  0.000   1.46   0.00   0.00      0      0    122.9   0.62   0.00   0.61    0.99    0.95    1.00    0.57    0.64    0.57    0.52    0.00      0      0      0       0      13 17.45
 2004 201   284    32   15.0      3   0.96    812     49      0    391    861    861      0    0.0  0.000      0      0  0.000  0.000  0.429  0.054  0.000  0.000  0.000   1.38   0.00   0.00      0      0    118.7   0.63   0.00   0.61    1.08    1.03    1.08    0.62    0.67    0.58    0.54    0.00      0      0      0       0      15 21.32
 2004 202   285    33   15.0      3   0.97    843     60      0    407    903    903      0    0.0  0.000      0      0  0.000  0.000  0.453  0.050  0.000  0.000  0.000   1.33   0.00   0.00      0      0    114.6   0.63   0.00   0.61    1.07    1.03    1.07    0.61    0.66    0.56    0.53    0.00      0      0      0       0      17 17.50
 2004 203   286    34   16.0      3   0.96    872     73      0    410    945    945      0    0.0  0.000      0      0  0.000  0.000  0.478  0.043  0.000  0.000  0.000   1.29   0.00   0.00      0      0    110.6   0.63   0.00   0.61    1.01    0.97    1.01    0.57    0.62    0.53    0.49    0.00      0      0      0       0      19 17.80
 2004 204   287    35   16.0      3   0.96    900     87      0    435    987    987      0    0.0  0.000      0      0  0.000  0.000  0.490  0.067  0.000  0.000  0.000   1.24   0.00   0.00      0      0    106.8   0.63   0.00   0.61    1.05    1.02    1.05    0.59    0.64    0.53    0.50    0.00      0      0      0       0      21 17.70
 2004 205   288    36   17.0      3   0.96    928    105      0    464   1032   1032      0    0.0  0.000      0      0  0.000  0.000  0.505  0.052  0.000  0.000  0.000   1.19   0.00   0.00      0      0    103.1   0.63   0.00   0.61    1.11    1.08    1.11    0.63    0.67    0.54    0.51    0.00      0      0      0       0      23 18.30
 2004 206   289    37   17.0      3   0.95    952    122      0    466   1074   1074      0    0.0  0.000      0      0  0.000  0.000  0.520  0.049  0.000  0.000  0.000   1.15   0.00   0.00      0      0     99.6   0.63   0.00   0.61    1.04    1.01    1.04    0.58    0.62    0.50    0.48    0.00      0      0      0       0      26 17.05
 2004 207   290    38   18.0      3   0.94    977    142      0    484   1120   1120      0    0.0  0.000      0      0  0.000  0.000  0.531  0.045  0.000  0.000  0.000   1.11   0.00   0.00      0      0     96.2   0.63   0.00   0.61    1.05    1.02    1.05    0.59    0.62    0.49    0.47    0.00      0      0      0       0      28 17.95
 2004 208   291    39   18.0      3   0.93   1002    165      0    497   1167   1167      0    0.0  0.000      0      0  0.000  0.000  0.540  0.039  0.000  0.000  0.000   1.07   0.00   0.00      0      0     92.9   0.63   0.00   0.61    1.04    1.01    1.04    0.58    0.61    0.48    0.46    0.00      0      0      0       0      30 17.90
 2004 209   292    40   19.0      3   0.92   1027    192      0    499   1219   1219      0    0.0  0.000      0      0  0.000  0.000  0.549  0.027  0.000  0.000  0.000   1.03   0.00   0.00      0      0     89.8   0.63   0.00   0.61    0.97    0.95    0.97    0.54    0.57    0.45    0.43    0.00      0      0      0       0      33 19.25
 2004 210   293    41   19.0      3   0.91   1051    220      0    503   1271   1271      0    0.0  0.000      0      0  0.000  0.000  0.557  0.020  0.000  0.000  0.000   1.00   0.00   0.00      0      0     86.8   0.63   0.00   0.61    0.93    0.90    0.93    0.52    0.54    0.42    0.41    0.00      0      0      0       0      35 18.55
 2004 211   294    42   19.0      3   0.90   1072    248      0    513   1320   1320      0    0.0  0.000      0      0  0.000  0.000  0.566  0.011  0.000  0.000  0.000   0.96   0.00   0.00      0      0     83.9   0.63   0.00   0.61    0.91    0.89    0.91    0.51    0.53    0.41    0.39    0.00      0      0      0       0      38 17.25
 2004 212   295    43   20.0      3   0.89   1093    278      0    514   1371   1371      0    0.0  0.000      1      0  0.000  0.000  0.575  0.005  0.000  0.000  0.000   0.93   0.00   0.00      0      1     81.0   0.63   0.00   0.61    0.85    0.84    0.85    0.47    0.50    0.38    0.37    0.00      0      0      0       0      40 17.30
 2004 213   296    44   20.0      3   0.88   1118    306      0    514   1425   1426      0    0.0  0.000      2      0  0.000  0.000  0.581  0.000  0.000  0.000  0.000   0.90   0.00   0.00      0      2     78.5   0.63   0.00   0.61    0.80    0.78    0.80    0.45    0.47    0.36    0.34    0.00      0      0      0       0      43 18.25
 2004 214   297    45   21.0      3   0.87   1142    344      0    526   1486   1490      0    0.0  0.000      4      0  0.000  0.000  0.584  0.000  0.000  0.000  0.000   0.87   0.00   0.00      0      4     76.0   0.63   0.00   0.61    0.81    0.79    0.81    0.45    0.47    0.35    0.34    0.00      0      0      0       0      45 19.10
 2004 215   298    46   21.0      3   0.85   1161    382      0    528   1543   1549      0    0.0  0.000      6      0  0.000  0.000  0.587  0.000  0.000  0.000  0.000   0.85   0.00   0.00      0      6     73.4   0.63   0.00   0.61    0.77    0.75    0.77    0.43    0.44    0.34    0.32    0.00      0      0      0       0      48 19.50
 2004 216   299    47   22.0      3   0.83   1176    414      0    542   1590   1601      0    0.0  0.000     11      0  0.000  0.000  0.590  0.000  0.000  0.000  0.000   0.83   0.00   0.01      0     11     70.9   0.63   0.00   0.61    0.79    0.78    0.79    0.44    0.46    0.34    0.33    0.00      0      0      0       0      51 18.15
 2004 217   300    48   22.0      3   0.81   1187    440      0    542   1627   1640      0    0.0  0.000     14      0  0.000  0.000  0.594  0.000  0.000  0.000  0.000   0.83   0.00   0.01      0     14     68.3   0.63   0.00   0.61    0.74    0.73    0.74    0.41    0.43    0.32    0.31    0.00      0      0      0       0      53 16.45
 2004 218   301    49   23.0      3   0.79   1199    469      0    548   1668   1688      0    0.0  0.000     20      0  0.000  0.000  0.587  0.000  0.000  0.003  0.000   0.81   0.00   0.01      0     20     66.0   0.63   0.00   0.61    0.72    0.71    0.72    0.40    0.41    0.31    0.30    0.00      0      0      0       0      56 17.35
 2004 219   302    50   23.0      3   0.77   1210    498      0    548   1708   1734      0    0.0  0.000     27      0  0.000  0.000  0.583  0.058  0.000  0.003  0.000   0.80   0.00   0.02      0     27     63.7   0.63   0.00   0.61    0.67    0.66    0.67    0.37    0.38    0.28    0.27    0.00      0      0      0       0      59 16.65
 2004 220   303    51   23.0      3   0.75   1222    524      0    557   1746   1786      0    0.0  0.000     40      0  0.000  0.000  0.582  0.109  0.000  0.005  0.000   0.78   0.00   0.02      0     40     61.5   0.63   0.00   0.61    0.66    0.66    0.66    0.37    0.38    0.28    0.27    0.00      0      0      0       0      62 19.05
 2004 221   304    52   24.0      3   0.73   1230    545      0    557   1774   1823      0    0.0  0.000     48      0  0.000  0.000  0.590  0.117  0.000  0.001  0.000   0.77   0.00   0.03      0     48     59.3   0.63   0.00   0.61    0.61    0.60    0.61    0.34    0.35    0.25    0.25    0.00      0      0      0       0      64 16.00
 2004 222   305    53   24.0      3   0.71   1239    566      0    556   1805   1864      0    0.0  0.000     59      0  0.000  0.000  0.595  0.079  0.000  0.000  0.000   0.75   0.00   0.03      0     59     57.2   0.63   0.00   0.61    0.56    0.55    0.56    0.31    0.32    0.23    0.23    0.00      0      0      0       0      64 20.81
 2004 223   306    54   24.0      3   0.69   1245    581      0    555   1827   1895      0    0.0  0.000     68      0  0.000  0.000  0.600  0.067  0.000  0.000  0.000   0.74   0.00   0.04      0     68     55.1   0.63   0.00   0.61    0.52    0.51    0.52    0.28    0.29    0.21    0.21    0.00      0      0      0       0      64 17.45
 2004 224   307    55   24.0      3   0.66   1251    593      0    554   1845   1922      0    0.0  0.000     77      0  0.000  0.000  0.605  0.069  0.000  0.000  0.000   0.74   0.00   0.04      0     77     53.1   0.63   0.00   0.61    0.48    0.47    0.48    0.26    0.27    0.20    0.19    0.00      0      0      0       0      64 16.10
 2004 225   308    56   24.0      3   0.65   1260    601      0    556   1861   1964      0    0.0  0.000    103      0  0.000  0.000  0.607  0.059  0.000  0.000  0.000   0.73   0.00   0.05      0    103     51.2   0.63   0.00   0.61    0.46    0.45    0.46    0.25    0.26    0.19    0.18    0.00      0      0      0       0      64 17.50
 2004 226   309    57   24.0      4   0.62   1245    657      0    556   1902   2011      0    0.0  0.000    109      0  0.000  0.000  0.609  0.111  0.000  0.000  0.000   0.72   0.00   0.05      0    109     49.7   0.63   0.00   0.61    0.43    0.42    0.43    0.24    0.24    0.17    0.17    0.00      0      0      0       0      67 18.35
 2004 227   310    58   24.0      4   0.59   1229    684      0    554   1913   2026      0    0.0  0.000    112      0  0.000  0.000  0.605  0.101  0.000  0.000  0.000   0.71   0.00   0.06      0    112     48.2   0.63   0.00   0.61    0.39    0.38    0.39    0.21    0.22    0.16    0.15    0.00      0      0      0       0      67 16.50
 2004 228   311    59   24.0      4   0.57   1212    734      0    554   1946   2065      0    0.0  0.000    119      0  0.000  0.000  0.611  0.109  0.000  0.011  0.000   0.70   0.00   0.06      0    119     46.8   0.63   0.00   0.61    0.36    0.36    0.36    0.20    0.21    0.15    0.14    0.00      0      0      0       0      67 18.25
 2004 229   312    60   24.0      4   0.54   1193    776      0    553   1969   2094      0    0.0  0.000    125      0  0.000  0.000  0.609  0.071  0.000  0.037  0.000   0.69   0.00   0.06      0    125     45.6   0.63   0.00   0.61    0.34    0.33    0.34    0.19    0.19    0.14    0.13    0.00      0      0      0       0      67 17.00
 2004 230   313    61   24.0      4   0.52   1173    803      0    552   1976   2104      0    0.0  0.000    128      0  0.000  0.000  0.613  0.062  0.000  0.037  0.000   0.69   0.00   0.06      0    128     44.4   0.63   0.00   0.61    0.31    0.31    0.31    0.17    0.18    0.13    0.12    0.00      0      0      0       0      67 17.85
 2004 231   314    62   24.0      4   0.50   1152    834      0    551   1986   2119      0    0.0  0.000    133      0  0.000  0.000  0.613  0.052  0.000  0.043  0.000   0.69   0.00   0.06      0    133     43.3   0.63   0.00   0.61    0.29    0.29    0.29    0.16    0.16    0.12    0.11    0.00      0      0      0       0      67 17.80
 2004 232   315    63   24.0      4   0.48   1129    877      0    550   2006   2146      0    0.0  0.000    140      0  0.000  0.043  0.610  0.041  0.000  0.062  0.000   0.68   0.00   0.07      0    140     42.3   0.63   0.00   0.61    0.28    0.28    0.28    0.15    0.16    0.11    0.11    0.00      0      0      0       0      67 18.90
 2004 233   316    64   24.0      4   0.46   1105    901      0    548   2006   2150      0    0.0  0.000    143      0  0.000  0.000  0.607  0.033  0.000  0.054  0.000   0.68   0.00   0.07      0    143     41.4   0.63   0.00   0.61    0.26    0.26    0.26    0.14    0.14    0.10    0.10    0.00      0      0      0       0      70 17.05
 2004 234   317    65   24.0      4   0.44   1080    920      0    547   2000   2146      0    0.0  0.000    146      0  0.000  0.000  0.606  0.027  0.000  0.035  0.000   0.69   0.00   0.07      0    146     40.6   0.63   0.00   0.61    0.24    0.24    0.24    0.13    0.13    0.10    0.09    0.00      0      0      0       0      73 18.00
 2004 235   318    66   24.0      4   0.42   1053    939      0    545   1992   2142      0    0.0  0.000    150      0  0.000  0.000  0.599  0.113  0.000  0.016  0.000   0.69   0.00   0.07      0    150     39.9   0.63   0.00   0.61    0.22    0.22    0.22    0.12    0.12    0.09    0.09    0.00      0      0      0       0      75 18.60
 2004 236   319    67   24.0      5   0.40   1053    928     35    542   1981   2166    156   22.4  0.016    184      5  0.000  0.000  0.589  0.113  0.000  0.054  0.000   0.69  18.85   0.09      0    184     38.3   0.63   0.00   0.61    0.22    0.22    0.22    0.12    0.12    0.09    0.09    0.00      0      0      0       0      75 15.35
 2004 237   320    68   24.0      5   0.39   1053    939     46    546   1992   2188    156   29.9  0.021    196      5  0.000  0.000  0.594  0.072  0.000  0.076  0.000   0.68  23.67   0.09      0    196     36.7   0.63   0.00   0.61    0.23    0.23    0.23    0.13    0.13    0.09    0.09    0.00      0      0      0       0      75 16.10
 2004 238   321    69   24.0      5   0.37   1053    939     58    551   1992   2200    156   37.3  0.026    208      5  0.000  0.000  0.588  0.093  0.000  0.084  0.000   0.67  27.91   0.09      0    208     35.2   0.63   0.00   0.61    0.25    0.25    0.25    0.14    0.14    0.10    0.10    0.00      0      0      0       0      75 19.10
 2004 239   322    70   24.0      5   0.36   1053    939     70    553   1992   2212    156   44.8  0.031    219      5  0.000  0.000  0.589  0.102  0.000  0.093  0.000   0.67  31.74   0.10      0    219     33.7   0.63   0.00   0.61    0.25    0.25    0.25    0.13    0.14    0.10    0.09    0.00      0      0      0       0      75 17.45
 2004 240   323    71   24.0      5   0.34   1053    939     81    556   1992   2223    156   52.3  0.037    231      5  0.000  0.000  0.586  0.067  0.000  0.101  0.000   0.67  35.19   0.10      0    231     32.3   0.63   0.00   0.61    0.25    0.25    0.25    0.14    0.14    0.10    0.10    0.00      0      0      0       0      75 18.45
 2004 241   324    72   24.0      5   0.33   1053    939     93    556   1992   2235    156   59.8  0.042    243      5  0.000  0.000  0.584  0.059  0.000  0.109  0.000   0.66  38.31   0.11      0    243     31.0   0.63   0.00   0.61    0.24    0.24    0.24    0.13    0.13    0.09    0.09    0.00      0      0      0       0      75 18.20
 2004 242   325    73   24.0      5   0.31   1053    939    105    560   1992   2247    156   67.3  0.047    254      5  0.000  0.000  0.581  0.049  0.000  0.117  0.000   0.66  41.14   0.11      0    254     29.7   0.63   0.00   0.61    0.25    0.25    0.25    0.14    0.14    0.10    0.09    0.00      0      0      0       0      75 18.80
 2004 243   326    74   24.0      5   0.30   1053    939    116    564   1992   2258    156   74.8  0.051    266      5  0.000  0.000  0.578  0.039  0.000  0.125  0.000   0.66  43.72   0.12      0    266     28.5   0.63   0.00   0.61    0.27    0.26    0.27    0.14    0.15    0.10    0.10    0.00      0      0      0       0      78 18.70
 2004 244   327    75   24.0      5   0.29   1053    939    128    564   1992   2270    156   82.3  0.056    278      5  0.000  0.000  0.574  0.071  0.000  0.134  0.000   0.65  46.08   0.12      0    278     27.4   0.63   0.00   0.61    0.26    0.26    0.26    0.14    0.14    0.10    0.10    0.00      0      0      0       0      81 18.35
 2004 245   328    76   24.0      5   0.28   1053    939    140    565   1992   2282    156   89.8  0.061    289      5  0.000  0.000  0.570  0.057  0.000  0.142  0.000   0.65  48.26   0.13      0    289     26.3   0.63   0.00   0.61    0.25    0.25    0.25    0.14    0.14    0.09    0.09    0.00      0      0      0       0      81 18.50
 2004 246   329    77   24.0      5   0.27   1053    939    151    563   1992   2293    156   97.3  0.066    301      5  0.000  0.000  0.568  0.109  0.000  0.152  0.000   0.65  50.26   0.13      0    301     25.2   0.63   0.00   0.61    0.23    0.23    0.23    0.13    0.13    0.09    0.09    0.00      0      0      0       0      84 15.50
 2004 247   330    78   24.0      5   0.25   1053    939    163    566   1992   2305    156  104.8  0.071    313      5  0.000  0.000  0.565  0.103  0.000  0.160  0.000   0.64  52.12   0.14      0    313     24.2   0.63   0.00   0.61    0.24    0.24    0.24    0.13    0.13    0.09    0.09    0.00      0      0      0       0      84 17.85
 2004 248   331    79   24.0      5   0.24   1053    939    175    567   1992   2317    156  112.3  0.075    324      5  0.000  0.000  0.563  0.104  0.000  0.170  0.000   0.64  53.84   0.14      0    324     23.2   0.63   0.00   0.61    0.23    0.23    0.23    0.13    0.13    0.09    0.09    0.00      0      0      0       0      84 16.95
 2004 249   332    80   24.0      5   0.23   1053    939    186    570   1992   2328    156  119.8  0.080    336      5  0.000  0.000  0.560  0.067  0.000  0.178  0.000   0.64  55.44   0.14      0    336     22.3   0.63   0.00   0.61    0.24    0.24    0.24    0.13    0.13    0.09    0.09    0.00      0      0      0       0      84 17.85
 2004 250   333    81   24.0      5   0.23   1053    939    198    569   1992   2340    156  127.3  0.085    348      5  0.000  0.000  0.558  0.072  0.000  0.186  0.000   0.63  56.94   0.15      0    348     21.4   0.63   0.00   0.61    0.23    0.23    0.23    0.12    0.12    0.08    0.08    0.00      0      0      0       0      84 18.45
 2004 251   334    82   24.0      5   0.22   1053    939    210    568   1992   2352    156  134.8  0.089    359      5  0.000  0.000  0.555  0.069  0.000  0.195  0.000   0.63  58.34   0.15      0    359     20.6   0.63   0.00   0.61    0.22    0.22    0.22    0.12    0.12    0.08    0.08    0.00      0      0      0       0      84 17.40
 2004 252   335    83   24.0      5   0.21   1053    939    221    569   1992   2363    156  142.3  0.094    371      5  0.000  0.000  0.553  0.060  0.004  0.203  0.000   0.62  59.65   0.16      0    371     19.7   0.63   0.00   0.61    0.22    0.22    0.22    0.12    0.12    0.08    0.08    0.00      0      0      0       0      87 18.65
 2004 253   336    84   24.0      5   0.20   1053    939    233    568   1992   2375    156  149.8  0.098    383      5  0.000  0.000  0.550  0.050  0.014  0.211  0.000   0.62  60.88   0.16      0    383     19.0   0.63   0.00   0.61    0.20    0.20    0.20    0.11    0.11    0.08    0.07    0.00      0      0      0       0      90 18.80
 2004 254   337    85   24.0      5   0.19   1053    939    245    566   1992   2387    156  157.3  0.102    394      5  0.000  0.000  0.544  0.050  0.024  0.220  0.000   0.62  62.04   0.17      0    394     18.2   0.63   0.00   0.61    0.19    0.19    0.19    0.11    0.11    0.07    0.07    0.00      0      0      0       0      92 18.40
 2004 255   338    86   24.0      5   0.18   1053    939    256    564   1992   2398    156  164.8  0.107    406      5  0.000  0.000  0.538  0.052  0.035  0.228  0.000   0.62  63.13   0.17      0    406     17.5   0.63   0.00   0.61    0.18    0.18    0.18    0.10    0.10    0.07    0.07    0.00      0      0      0       0      95 18.65
 2004 256   339    87   24.0      5   0.18   1053    939    268    562   1992   2410    156  172.3  0.111    418      5  0.000  0.000  0.533  0.073  0.046  0.237  0.000   0.62  64.16   0.17      0    418     16.8   0.63   0.00   0.61    0.17    0.17    0.17    0.09    0.09    0.06    0.06    0.00      0      0      0       0      98 16.80
 2004 257   340    88   24.0      5   0.17   1053    939    279    563   1992   2421    156  179.7  0.115    429      5  0.000  0.000  0.523  0.102  0.056  0.244  0.000   0.62  65.12   0.18      0    429     16.2   0.63   0.00   0.61    0.17    0.17    0.17    0.09    0.09    0.06    0.06    0.00      0      0      0       0     101 19.10
 2004 258   341    89   24.0      5   0.16   1053    939    291    563   1992   2433    156  187.2  0.120    441      5  0.000  0.000  0.517  0.102  0.070  0.256  0.000   0.61  66.04   0.18      0    441     15.6   0.63   0.00   0.61    0.17    0.17    0.17    0.09    0.09    0.06    0.06    0.00      0      0      0       0     104 13.65
 2004 259   342    90   24.0      5   0.16   1053    939    303    561   1992   2445    156  194.7  0.124    452      5  0.000  0.000  0.513  0.104  0.081  0.264  0.000   0.61  66.92   0.19      0    452     15.0   0.63   0.00   0.61    0.16    0.16    0.16    0.08    0.08    0.06    0.06    0.00      0      0      0       0     107 17.80
 2004 260   343    91   24.0      5   0.15   1053    939    314    559   1992   2456    156  202.2  0.128    464      5  0.000  0.000  0.510  0.098  0.092  0.274  0.000   0.61  67.75   0.19      0    464     14.4   0.63   0.00   0.61    0.14    0.14    0.14    0.08    0.08    0.05    0.05    0.00      0      0      0       0     107 16.80
 2004 261   344    92   24.0      5   0.15   1053    939    326    558   1992   2468    156  209.7  0.132    476      5  0.000  0.000  0.507  0.068  0.102  0.282  0.000   0.60  68.54   0.19      0    476     13.9   0.63   0.00   0.61    0.14    0.14    0.14    0.07    0.07    0.05    0.05    0.00      0      0      0       0     107 18.65
 2004 262   345    93   24.0      5   0.14   1053    939    336    559   1992   2478    156  215.9  0.135    485      5  0.000  0.000  0.504  0.054  0.106  0.285  0.000   0.60  69.16   0.20      0    485     13.3   0.63   0.00   0.61    0.14    0.14    0.14    0.08    0.08    0.05    0.05    0.00      0      0      0       0     107 20.40
 2004 263   346    94   24.0      5   0.14   1053    939    346    558   1992   2488    156  222.7  0.139    496      5  0.000  0.000  0.499  0.059  0.114  0.291  0.000   0.59  69.83   0.20      0    496     12.8   0.63   0.00   0.61    0.14    0.14    0.14    0.07    0.07    0.05    0.05    0.00      0      0      0       0     107 19.65
 2004 264   347    95   24.0      5   0.13   1053    939    358    555   1992   2500    156  230.2  0.143    508      5  0.000  0.000  0.498  0.074  0.126  0.301  0.000   0.59  70.52   0.20      0    508     12.4   0.63   0.00   0.61    0.12    0.12    0.12    0.07    0.07    0.04    0.04    0.00      0      0      0       0     109 15.45
 2004 265   348    96   24.0      5   0.13   1053    937    370    552   1991   2510    156  237.7  0.147    519      5  0.000  0.000  0.497  0.091  0.137  0.309  0.000   0.59  71.18   0.21      0    519     11.9   0.63   0.00   0.61    0.12    0.12    0.12    0.07    0.07    0.04    0.04    0.00      0      0      0       0     112 16.15
 2004 266   349    97   24.0      5   0.12   1053    939    381    552   1992   2523    156  245.2  0.151    531      5  0.000  0.000  0.494  0.062  0.149  0.319  0.000   0.58  71.82   0.21      0    531     11.4   0.63   0.00   0.61    0.12    0.12    0.12    0.07    0.07    0.04    0.04    0.00      0      0      0       0     112 17.85
 2004 267   350    98   24.0      5   0.12   1053    939    381    552   1992   2523    156  245.2  0.151    531      5  0.000  0.000  0.491  0.059  0.149  0.319  0.000   0.58  71.82   0.21      0    531     11.4   0.63   0.00   0.61    0.12    0.12    0.12    0.06    0.06    0.04    0.04    0.00      0      0      0       0     112 18.80
[...]
 2004 237   320    68   24.0      5   3.61   3092   3505    277   1314   6597   9397   1845   15.0  0.029   2801      5  0.000  0.000  0.002  0.058  0.000  0.051  0.000   1.73   9.88   0.30      0   2801    116.8   1.60   0.00   0.61    0.96    1.19    1.15    0.87    0.61    0.36    0.35    0.00      0      0      0       0     149 16.10
 2004 238   321    69   24.0      5   3.60   3092   3505    413   1382   6597   9534   1845   22.4  0.043   2937      5  0.000  0.000  0.001  0.077  0.000  0.038  0.000   1.70  14.08   0.31      0   2937    116.3   1.60   0.00   0.61    1.22    1.42    1.40    0.98    0.75    0.45    0.44    0.00      0      0      0       0     149 19.10
 2004 239   322    70   24.0      5   3.58   3092   3505    552   1418   6597   9672   1845   29.9  0.057   3076      5  0.000  0.000  0.001  0.086  0.000  0.026  0.000   1.66  17.94   0.32      0   3076    115.8   1.60   0.00   0.61    1.31    1.49    1.47    1.00    0.79    0.49    0.48    0.00      0      0      0       0     149 17.45
 2004 240   323    71   24.0      5   3.56   3092   3505    690   1470   6597   9811   1845   37.4  0.070   3214      5  0.000  0.000  0.001  0.060  0.000  0.000  0.000   1.62  21.48   0.33      0   3214    115.2   1.60   0.00   0.61    1.47    1.64    1.62    1.06    0.87    0.54    0.54    0.00      0      0      0       0     149 18.45
 2004 241   324    72   24.0      5   3.54   3092   3505    829   1489   6597   9949   1845   44.9  0.083   3353      5  0.000  0.000  0.001  0.057  0.000  0.000  0.000   1.59  24.72   0.34      0   3353    114.6   1.60   0.00   0.61    1.47    1.62    1.60    1.04    0.86    0.54    0.53    0.00      0      0      0       0     149 18.20
 2004 242   325    73   24.0      5   3.52   3092   3505    967   1551   6597  10088   1845   52.4  0.096   3491      5  0.000  0.000  0.002  0.051  0.000  0.012  0.000   1.55  27.70   0.35      0   3491    113.8   1.60   0.00   0.61    1.67    1.81    1.79    1.13    0.97    0.62    0.61    0.00      0      0      0       0     157 18.80
 2004 243   326    74   24.0      5   3.49   3092   3505   1105   1625   6597  10226   1845   59.9  0.108   3629      5  0.000  0.000  0.002  0.044  0.000  0.025  0.000   1.51  30.46   0.35      0   3629    112.8   1.60   0.00   0.61    1.90    2.03    2.01    1.24    1.09    0.70    0.70    0.00      0      0      0       0     164 18.70
 2004 244   327    75   24.0      5   3.46   3092   3505   1244   1655   6597  10364   1845   67.4  0.120   3768      5  0.000  0.000  0.004  0.052  0.000  0.025  0.000   1.48  33.01   0.36      0   3768    111.8   1.60   0.00   0.61    1.92    2.03    2.02    1.23    1.10    0.71    0.70    0.00      0      0      0       0     172 18.35
 2004 245   328    76   24.0      5   3.42   3092   3505   1382   1689   6597  10503   1845   74.9  0.132   3906      5  0.000  0.000  0.005  0.056  0.000  0.013  0.000   1.44  35.39   0.37      0   3906    110.7   1.60   0.00   0.61    1.95    2.06    2.04    1.23    1.11    0.72    0.71    0.00      0      0      0       0     181 18.50
 2004 246   329    77   24.0      5   3.39   3092   3505   1521   1697   6597  10641   1845   82.4  0.143   4045      5  0.000  0.000  0.009  0.104  0.000  0.000  0.000   1.41  37.60   0.38      0   4045    109.6   1.60   0.00   0.61    1.85    1.95    1.93    1.16    1.05    0.68    0.67    0.00      0      0      0       0     189 15.50
 2004 247   330    78   24.0      5   3.35   3092   3505   1659   1765   6597  10780   1845   89.9  0.154   4183      5  0.000  0.000  0.011  0.099  0.000  0.000  0.000   1.37  39.66   0.39      0   4183    108.3   1.60   0.00   0.61    2.04    2.12    2.11    1.25    1.15    0.75    0.74    0.00      0      0      0       0     198 17.85
 2004 248   331    79   24.0      5   3.31   3092   3505   1797   1806   6597  10918   1845   97.4  0.165   4321      5  0.000  0.000  0.015  0.102  0.000  0.012  0.000   1.34  41.60   0.40      0   4321    106.9   1.60   0.00   0.61    2.08    2.16    2.15    1.26    1.17    0.76    0.76    0.00      0      0      0       0     207 16.95
 2004 249   332    80   24.0      5   3.26   3092   3505   1936   1874   6597  11056   1845  104.9  0.175   4460      5  0.000  0.000  0.018  0.066  0.000  0.023  0.000   1.30  43.41   0.40      0   4460    105.3   1.60   0.00   0.61    2.26    2.33    2.32    1.35    1.27    0.83    0.83    0.00      0      0      0       0     207 17.85
 2004 250   333    81   24.0      5   3.20   3092   3505   2074   1905   6597  11195   1845  112.4  0.185   4598      5  0.000  0.000  0.021  0.066  0.000  0.023  0.000   1.27  45.11   0.41      0   4598    103.5   1.60   0.00   0.61    2.25    2.32    2.31    1.33    1.26    0.83    0.82    0.00      0      0      0       0     207 18.45
 2004 251   334    82   24.0      5   3.14   3092   3505   2213   1929   6597  11333   1845  119.9  0.195   4737      5  0.000  0.000  0.025  0.061  0.000  0.012  0.000   1.23  46.71   0.42      0   4737    101.6   1.60   0.00   0.61    2.21    2.27    2.26    1.30    1.23    0.81    0.81    0.00      0      0      0       0     216 17.40
 2004 252   335    83   24.0      5   3.08   3092   3505   2351   1978   6597  11471   1845  127.4  0.205   4875      5  0.000  0.000  0.029  0.054  0.000  0.001  0.000   1.20  48.23   0.42      0   4875     99.5   1.60   0.00   0.61    2.29    2.34    2.33    1.34    1.28    0.84    0.84    0.00      0      0      0       0     226 18.65
 2004 253   336    84   24.0      5   3.00   3092   3505   2489   2000   6597  11610   1845  134.9  0.214   5013      5  0.000  0.000  0.033  0.049  0.000  0.001  0.000   1.16  49.66   0.43      0   5013     97.1   1.60   0.00   0.61    2.23    2.28    2.28    1.30    1.24    0.82    0.82    0.00      0      0      0       0     236 18.80
 2004 254   337    85   24.0      5   2.93   3092   3505   2628   2020   6597  11748   1845  142.4  0.224   5152      5  0.000  0.000  0.038  0.044  0.000  0.013  0.000   1.13  51.01   0.44      0   5152     94.6   1.60   0.00   0.61    2.17    2.22    2.22    1.26    1.21    0.80    0.80    0.00      0      0      0       0     246 18.40
 2004 255   338    86   24.0      5   2.84   3092   3505   2766   2029   6597  11887   1845  149.9  0.233   5290      5  0.000  0.000  0.043  0.038  0.000  0.024  0.000   1.10  52.29   0.45      0   5290     91.9   1.60   0.00   0.61    2.07    2.12    2.11    1.20    1.15    0.76    0.76    0.00      0      0      0       0     256 18.65
 2004 256   339    87   24.0      5   2.76   3092   3505   2905   2040   6597  12025   1845  157.4  0.242   5428      5  0.000  0.000  0.050  0.039  0.000  0.024  0.000   1.06  53.51   0.45      0   5428     89.3   1.60   0.00   0.61    1.99    2.03    2.02    1.15    1.11    0.73    0.73    0.00      0      0      0       0     266 16.80
 2004 257   340    88   24.0      5   2.66   3092   3505   3041   2087   6597  12162   1845  164.8  0.250   5565      5  0.000  0.000  0.055  0.092  0.000  0.011  0.000   1.03  54.65   0.46      0   5565     86.1   1.60   0.00   0.61    2.09    2.12    2.12    1.20    1.16    0.76    0.76    0.00      0      0      0       0     276 19.10
 2004 258   341    89   24.0      5   2.59   3092   3505   3180   2141   6597  12300   1845  172.3  0.259   5704      5  0.000  0.000  0.064  0.101  0.000  0.000  0.000   1.00  55.75   0.46      0   5704     83.7   1.60   0.00   0.61    2.19    2.22    2.22    1.25    1.21    0.80    0.80    0.00      0      0      0       0     286 13.65
 2004 259   342    90   24.0      5   2.48   3092   3505   3318   2155   6597  12439   1845  179.8  0.267   5842      5  0.000  0.000  0.071  0.105  0.000  0.000  0.000   0.97  56.80   0.47      0   5842     80.4   1.60   0.00   0.61    2.10    2.13    2.13    1.20    1.16    0.77    0.77    0.00      0      0      0       0     297 17.80
 2004 260   343    91   24.0      5   2.38   3092   3505   3457   2160   6597  12577   1845  187.3  0.275   5980      5  0.000  0.000  0.080  0.103  0.000  0.012  0.000   0.94  57.80   0.48      0   5980     77.0   1.60   0.00   0.61    1.96    1.98    1.98    1.11    1.08    0.72    0.72    0.00      0      0      0       0     297 16.80
 2004 261   344    92   24.0      5   2.26   3092   3505   3595   2188   6597  12715   1845  194.8  0.283   6119      5  0.000  0.000  0.087  0.069  0.000  0.023  0.000   0.91  58.75   0.48      0   6119     73.1   1.60   0.00   0.61    1.96    1.98    1.98    1.11    1.08    0.72    0.72    0.00      0      0      0       0     297 18.65
 2004 262   345    93   24.0      5   2.12   3092   3505   3709   2240   6597  12830   1845  201.0  0.289   6233      5  0.000  0.000  0.094  0.051  0.000  0.024  0.000   0.88  59.51   0.49      0   6233     68.5   1.60   0.00   0.61    2.08    2.11    2.10    1.17    1.15    0.76    0.76    0.00      0      0      0       0     297 20.40
 2004 263   346    94   24.0      5   1.97   3092   3505   3836   2265   6597  12957   1845  207.9  0.296   6360      5  0.000  0.000  0.099  0.044  0.000  0.014  0.000   0.86  60.32   0.49      0   6360     63.8   1.60   0.00   0.61    2.07    2.09    2.09    1.16    1.14    0.76    0.76    0.00      0      0      0       0     297 19.65
 2004 264   347    95   24.0      5   1.85   3092   3505   3975   2268   6597  13095   1845  215.4  0.304   6498      5  0.000  0.000  0.109  0.054  0.000  0.004  0.000   0.83  61.16   0.50      0   6498     59.9   1.60   0.00   0.61    1.96    1.98    1.97    1.10    1.08    0.72    0.72    0.00      0      0      0       0     308 15.45
 2004 265   348    96   24.0      5   1.72   3092   3505   4113   2260   6597  13233   1845  222.9  0.311   6637      5  0.000  0.000  0.120  0.074  0.000  0.000  0.000   0.80  61.97   0.50      0   6637     55.7   1.60   0.00   0.61    1.80    1.82    1.81    1.01    0.99    0.66    0.66    0.00      0      0      0       0     320 16.15
 2004 266   349    97   24.0      5   1.57   3092   3505   4251   2288   6597  13372   1845  230.4  0.318   6775      5  0.000  0.000  0.131  0.056  0.000  0.007  0.000   0.77  62.75   0.51      0   6775     50.7   1.60   0.00   0.61    1.83    1.84    1.84    1.02    1.01    0.67    0.67    0.00      0      0      0       0     331 17.85
 2004 267   350    98   24.0      5   1.57   3092   3505   4251   2288   6597  13372   1845  230.4  0.318   6775      5  0.000  0.000  0.142  0.046  0.000  0.007  0.000   0.77  62.75   0.51      0   6775     50.7   1.60   0.00   0.61    1.86    1.87    1.87    1.04    1.02    0.68    0.68    0.00      0      0      0       0     331 18.80
 2004 268   351    99   24.0      5   1.57   3092   3505   4251   2288   6597  13372   1845  230.4  0.318   6775      5  0.000  0.000  0.142  0.038  0.000  0.007  0.000   0.77  62.75   0.51      0   6775     50.7   1.60   0.00   0.61    1.88    1.90    1.89    1.05    1.04    0.69    0.69    0.00      0      0      0       0     331 18.75
 2004 269   352   100   24.0      5   1.57   3092   3505   4251   2288   6597  13372   1845  230.4  0.318   6775      5  0.000  0.000  0.142  0.038  0.000  0.007  0.000   0.77  62.75   0.51      0   6775     50.7   1.60   0.00   0.61    1.91    1.92    1.92    1.06    1.05    0.70    0.70    0.00      0      0      0       0     331  0.00
 2004 270   353   101   24.0      5   1.57   3092   3505   4251   2288   6597  13372   1845  230.4  0.318   6775      5  0.000  0.000  0.142  0.038  0.000  0.007  0.000   0.77  62.75   0.51      0   6775     50.7   1.60   0.00   0.61    1.94    1.95    1.94    1.07    1.06    0.71    0.71    0.00      0      0      0       0     331 18.00
 2004 271   354   102   24.0      5   1.57   3092   3505   4251   2288   6597  13372   1845  230.4  0.318   6775      5  0.000  0.000  0.142  0.038  0.000  0.007  0.000   0.77  62.75   0.51      0   6775     50.7   1.60   0.00   0.61    1.96    1.97    1.97    1.09    1.08    0.72    0.72    0.00      0      0      0       0     331 18.15
 2004 272   355   103   24.0      5   1.57   3092   3505   4251   2288   6597  13372   1845  230.4  0.318   6775      5  0.000  0.000  0.142  0.038  0.000  0.007  0.000   0.77  62.75   0.51      0   6775     50.7   1.60   0.00   0.61    1.99    1.99    1.99    1.10    1.09    0.73    0.73    0.00      0      0      0       0     331 20.82
 2004 273   356   104   24.0      5   1.57   3092   3505   4251   2288   6597  13372   1845  230.4  0.318   6775      5  0.000  0.000  0.142  0.038  0.000  0.007  0.000   0.77  62.75   0.51      0   6775     50.7   1.60   0.00   0.61    2.01    2.02    2.02    1.11    1.10    0.74    0.73    0.00      0      0      0       0     331 21.01
 2004 274   357   105   24.0      5   1.57   3092   3505   4251   2288   6597  13372   1845  230.4  0.318   6775      5  0.000  0.000  0.142  0.038  0.000  0.007  0.000   0.77  62.75   0.51      0   6775     50.7   1.60   0.00   0.61    2.04    2.04    2.04    1.12    1.12    0.74    0.74    0.00      0      0      0       0     331 19.00
 2004 275   358   106   24.0      5   1.57   3092   3505   4251   2288   6597  13372   1845  230.4  0.318   6775      5  0.000  0.000  0.142  0.038  0.000  0.007  0.000   0.77  62.75   0.51      0   6775     50.7   1.60   0.00   0.61    2.06    2.06    2.06    1.14    1.13    0.75    0.75    0.00      0      0      0       0     331 19.00
 2004 276   359   107   24.0      5   1.57   3092   3505   4251   2288   6597  13372   1845  230.4  0.318   6775      5  0.000  0.000  0.142  0.038  0.000  0.007  0.000   0.77  62.75   0.51      0   6775     50.7   1.60   0.00   0.61    2.08    2.08    2.08    1.15    1.14    0.76    0.76    0.00      0      0      0       0     331 18.95
 2004 277   360   108   24.0      5   1.57   3092   3505   4251   2288   6597  13372   1845  230.4  0.318   6775      5  0.000  0.000  0.142  0.038  0.000  0.007  0.000   0.77  62.75   0.51      0   6775     50.7   1.60   0.00   0.61    2.10    2.10    2.10    1.16    1.15    0.77    0.77    0.00      0      0      0       0     331 20.45
 2004 278   361   109   24.0      5   1.57   3092   3505   4251   2288   6597  13372   1845  230.4  0.318   6775      5  0.000  0.000  0.142  0.038  0.000  0.007  0.000   0.77  62.75   0.51      0   6775     50.7   1.60   0.00   0.61    2.12    2.12    2.12    1.17    1.16    0.77    0.77    0.00      0      0      0       0     331 20.80
 2004 279   362   110   24.0      5   1.57   3092   3505   4251   2288   6597  13372   1845  230.4  0.318   6775      5  0.000  0.000  0.142  0.038  0.000  0.007  0.000   0.77  62.75   0.51      0   6775     50.7   1.60   0.00   0.61    2.13    2.13    2.13    1.18    1.17    0.78    0.78    0.00      0      0      0       0     331 18.40
 2004 280   363   111   24.0      5   1.57   3092   3505   4251   2288   6597  13372   1845  230.4  0.318   6775      5  0.000  0.000  0.142  0.038  0.000  0.007  0.000   0.77  62.75   0.51      0   6775     50.7   1.60   0.00   0.61    2.15    2.15    2.15    1.18    1.18    0.79    0.79    0.00      0      0      0       0     331 19.75
 2004 281   364   112   24.0      5   1.57   3092   3505   4251   2288   6597  13372   1845  230.4  0.318   6775      5  0.000  0.000  0.142  0.038  0.000  0.007  0.000   0.77  62.75   0.51      0   6775     50.7   1.60   0.00   0.61    1.97    2.19    2.19    1.21    1.20    0.80    0.80    0.00      0      0      0       0     331 20.74
 2004 282   365   113   24.0      5   1.57   3092   3505   4251   2288   6597  13372   1845  230.4  0.318   6775      5  0.000  0.000  0.142  0.038  0.000  0.007  0.000   0.77  62.75   0.51      0   6775     50.7   1.60   0.00   0.61    1.81    2.23    2.23    1.23    1.22    0.82    0.82    0.00      0      0      0       0     331 20.95
 2004 283   366   114   24.0      5   1.57   3092   3505   4251   2288   6597  13372   1845  230.4  0.318   6775      5  0.000  0.000  0.142  0.038  0.000  0.007  0.000   0.77  62.75   0.51      0   6775     50.7   1.60   0.00   0.61    1.67    2.27    2.27    1.25    1.24    0.83    0.83    0.00      0      0      0       0     331 20.74
 2004 284   367   115   24.0      5   1.57   3092   3505   4251   2288   6597  13372   1845  230.4  0.318   6775      5  0.000  0.000  0.142  0.038  0.000  0.007  0.000   0.77  62.75   0.51      0   6775     50.7   1.60   0.00   0.61    1.53    2.30    2.30    1.26    1.26    0.84    0.84    0.00      0      0      0       0     331 20.92
 2004 285   368   116   24.0      5   1.57   3092   3505   4251   2288   6597  13372   1845  230.4  0.318   6775      5  0.000  0.000  0.142  0.038  0.000  0.007  0.000   0.77  62.75   0.51      0   6775     50.7   1.60   0.00   0.61    1.60    2.30    2.30    1.26    1.26    0.84    0.84    0.00      0      0      0       0     331 19.25
 2004 286   369   117   24.0      5   1.57   3092   3505   4251   2288   6597  13372   1845  230.4  0.318   6775      5  0.000  0.000  0.142  0.038  0.000  0.007  0.000   0.77  62.75   0.51      0   6775     50.7   1.60   0.00   0.61    1.66    2.31    2.31    1.27    1.26    0.84    0.84    0.00      0      0      0       0     331 20.38
 2004 287   370   118   24.0      5   1.57   3092   3505   4251   2288   6597  13372   1845  230.4  0.318   6775      5  0.000  0.000  0.142  0.038  0.000  0.007  0.000   0.77  62.75   0.51      0   6775     50.7   1.60   0.00   0.61    1.71    2.31    2.31    1.27    1.26    0.85    0.85    0.00      0      0      0       0     331 20.74
 2004 288   371   119   24.0      5   1.57   3092   3505   4251   2288   6597  13372   1845  230.4  0.318   6775      5  0.000  0.000  0.142  0.038  0.000  0.007  0.000   0.77  62.75   0.51      0   6775     50.7   1.60   0.00   0.61    1.58    2.34    2.34    1.29    1.28    0.86    0.86    0.00      0      0      0       0     331 21.50
 2004 289   372   120   24.0      5   1.57   3092   3505   4251   2288   6597  13372   1845  230.4  0.318   6775      5  0.000  0.000  0.142  0.038  0.000  0.007  0.000   0.77  62.75   0.51      0   6775     50.7   1.60   0.00   0.61    1.45    2.37    2.37    1.30    1.30    0.87    0.87    0.00      0      0      0       0     331 20.55
 2004 290   373   121   24.0      5   1.57   3092   3505   4251   2288   6597  13372   1845  230.4  0.318   6775      5  0.000  0.000  0.142  0.038  0.000  0.007  0.000   0.77  62.75   0.51      0   6775     50.7   1.60   0.00   0.61    1.33    2.44    2.18    1.34    1.33    0.89    0.89    0.00      0      0      0       0     331 20.91
 2004 291   374   122   24.0      5   1.57   3092   3505   4251   2288   6597  13372   1845  230.4  0.318   6775      5  0.000  0.000  0.142  0.038  0.000  0.007  0.000   0.77  62.75   0.51      0   6775     50.7   1.60   0.00   0.61    1.23    2.50    2.01    1.37    1.37    0.91    0.91    0.00      0      0      0       0     331 21.17
 2004 292   375   123   24.0      5   1.57   3092   3505   4251   2288   6597  13372   1845  230.4  0.318   6775      5  0.000  0.000  0.142  0.038  0.000  0.007  0.000   0.77  62.75   0.51      0   6775     50.7   1.60   0.00   0.61    1.13    2.55    1.85    1.40    1.40    0.93    0.93    0.00      0      0      0       0     331 21.31
 2004 293   376   124   24.0      5   1.57   3092   3505   4251   2288   6597  13372   1845  230.4  0.318   6775      5  0.000  0.000  0.142  0.038  0.000  0.007  0.000   0.77  62.75   0.51      0   6775     50.7   1.60   0.00   0.61    1.04    2.60    1.70    1.43    1.43    0.95    0.95    0.00      0      0      0       0     331 21.23
 2004 294   377   125   24.0      5   1.57   3092   3505   4251   2288   6597  13372   1845  230.4  0.318   6775      5  0.000  0.000  0.142  0.038  0.000  0.007  0.000   0.77  62.75   0.51      0   6775     50.7   1.60   0.00   0.61    0.96    2.65    1.57    1.45    1.45    0.97    0.97    0.00      0      0      0       0     331 21.49
