*Soil Inorganic Nitrogen daily output file

*DSSAT Cropping System Model Ver. 4.5.1.023 -Stub         DEC 04, 2014; 01:35:45
                                                                                
*RUN   1        : N0 P0                     MZCER045 GHWA0401    1              
 MODEL          : MZCER045 - Maize                                              
 EXPERIMENT     : GHWA0401 MZ ON-STATION NXP (EXPERIMENT NO.2) 9 TRT            
 DATA PATH      :                                                               
 TREATMENT  1   : N0 P0                     MZCER045                            
  
!                                                            NO3 (ppm) by soil depth (cm):                                   NH4 (ppm) by soil depth (cm):
!                                                            0-5    5-15   15-20   20-30   30-40   40-50   50-60   60-90     0-5    5-15   15-20   20-30   30-40   40-50   50-60   60-90
@YEAR DOY   DAS  NAPC  NI#M    NLCC   NIAD   NITD   NHTD    NI1D    NI2D    NI3D    NI4D    NI5D    NI6D    NI7D    NI8D    NH1D    NH2D    NH3D    NH4D    NH5D    NH6D    NH7D    NH8D    NMNC    NITC    NDNC    NIMC    AMLC   NNMNC    NUCM
 2003 282     0     0     0     0.0   48.2   40.2    8.0    3.00    3.00    3.00    3.00    3.00    3.00    3.00    3.00    0.60    0.60    0.60    0.60    0.60    0.60    0.60    0.60    0.00    0.00    0.00    0.00    0.00    0.00    0.00
 2003 283     1     0     0     0.0   48.6   42.5    6.1    3.70    3.17    3.62    3.16    3.16    3.14    3.14    3.02    0.10    0.44    0.00    0.45    0.46    0.48    0.48    0.59    0.80    2.28    0.00    0.48    0.00    0.32    0.00
 2003 284     2     0     0     0.0   48.9   43.6    5.3    3.86    3.29    3.61    3.28    3.28    3.25    3.24    3.04    0.17    0.33    0.02    0.35    0.35    0.38    0.38    0.58    1.51    3.36    0.00    0.89    0.00    0.62    0.00
 2003 285     3     0     0     0.0   49.2   44.5    4.7    2.80    3.61    3.98    3.51    3.42    3.39    3.33    3.06    0.16    0.25    0.02    0.27    0.28    0.31    0.31    0.56    2.21    4.31    0.00    1.27    0.00    0.93    0.00
 2003 286     4     0     0     0.0   49.5   45.2    4.2    3.60    3.49    3.86    3.63    3.49    3.41    3.40    3.04    0.18    0.20    0.02    0.21    0.22    0.29    0.25    0.55    2.92    5.05    0.00    1.67    0.00    1.26    0.00
 2003 287     5     0     0     0.0   49.8   46.0    3.9    3.37    3.46    4.05    3.86    3.61    3.47    3.52    3.03    0.20    0.16    0.02    0.17    0.18    0.24    0.21    0.54    3.66    5.75    0.00    2.06    0.00    1.60    0.00
 2003 288     6     0     0     4.5   45.7   42.1    3.6    1.76    1.53    6.57    2.06    3.82    3.89    3.91    2.96    0.19    0.14    0.02    0.14    0.15    0.20    0.18    0.53    4.31    6.39    0.00    2.39    0.00    1.93    0.00
 2003 289     7     0     0     8.3   42.2   38.7    3.5    1.72    1.66    3.92    2.69    3.49    3.44    3.79    2.68    0.18    0.11    0.01    0.13    0.13    0.19    0.17    0.53    4.91    6.77    0.00    2.68    0.00    2.24    0.00
 2003 290     8     0     0    11.4   39.4   35.9    3.5    1.55    1.55    3.03    2.74    3.28    3.16    3.62    2.47    0.19    0.10    0.02    0.12    0.12    0.19    0.17    0.54    5.47    7.11    0.01    2.93    0.00    2.54    0.00
 2003 291     9     0     0    13.6   37.5   34.0    3.5    1.81    1.45    2.50    2.62    3.08    2.99    3.49    2.33    0.19    0.10    0.02    0.10    0.11    0.19    0.17    0.54    6.00    7.42    0.02    3.16    0.00    2.83    0.00
 2003 292    10     0     0    16.8   34.5   31.1    3.4    2.30    1.40    2.09    2.38    2.74    2.70    3.16    2.09    0.21    0.09    0.02    0.10    0.10    0.19    0.17    0.55    6.55    7.73    0.03    3.42    0.00    3.14    0.00
 2003 293    11     0     0    17.4   34.3   30.8    3.4    2.88    1.41    1.98    2.31    2.62    2.65    3.10    2.04    0.21    0.09    0.02    0.09    0.09    0.19    0.17    0.56    7.10    8.06    0.05    3.64    0.00    3.46    0.00
 2003 294    12     0     0    17.4   34.6   31.2    3.4    3.46    1.41    1.98    2.30    2.61    2.67    3.09    2.03    0.20    0.08    0.02    0.09    0.09    0.16    0.17    0.55    7.60    8.46    0.05    3.82    0.00    3.78    0.00
 2003 295    13     0     0    17.4   34.9   31.6    3.2    4.03    1.41    1.98    2.29    2.60    2.68    3.10    2.03    0.17    0.08    0.02    0.08    0.08    0.14    0.15    0.55    8.04    8.88    0.05    3.97    0.00    4.07    0.00
 2003 296    14     0     0    17.4   35.2   32.0    3.1    2.63    2.04    2.16    2.39    2.62    2.71    3.14    2.04    0.15    0.07    0.02    0.08    0.08    0.12    0.13    0.54    8.46    9.28    0.05    4.11    0.00    4.35    0.00
 2003 297    15     0     0    17.4   35.5   32.5    3.0    2.86    2.04    2.26    2.46    2.65    2.71    3.14    2.04    0.14    0.07    0.02    0.07    0.07    0.11    0.11    0.54    9.01    9.69    0.05    4.34    0.00    4.67    0.00
 2003 298    16     0     0    17.4   35.9   32.9    3.0    3.43    2.00    2.18    2.47    2.70    2.71    3.14    2.04    0.21    0.07    0.02    0.07    0.07    0.09    0.10    0.53    9.62   10.09    0.05    4.58    0.00    5.05    0.00
 2003 299    17     0     0    17.4   36.2   33.3    2.9    4.22    1.95    2.18    2.45    2.69    2.70    3.14    2.04    0.20    0.07    0.02    0.07    0.07    0.08    0.09    0.52   10.19   10.54    0.05    4.77    0.00    5.42    0.00
 2003 300    18     0     0    17.4   36.6   33.7    2.8    4.48    1.96    2.19    2.47    2.70    2.72    3.16    2.05    0.19    0.07    0.02    0.07    0.07    0.08    0.08    0.52   10.70   10.96    0.05    4.94    0.00    5.76    0.00
 2003 301    19     0     0    17.4   36.9   34.1    2.8    4.70    1.98    2.21    2.49    2.72    2.74    3.17    2.07    0.18    0.07    0.02    0.07    0.06    0.07    0.07    0.51   11.16   11.33    0.05    5.08    0.00    6.08    0.00
 2003 302    20     0     0    17.4   37.2   34.4    2.7    4.90    1.99    2.23    2.50    2.74    2.76    3.19    2.08    0.17    0.07    0.02    0.06    0.06    0.07    0.07    0.50   11.57   11.67    0.05    5.19    0.00    6.38    0.00
 2003 303    21     0     0    17.4   37.5   34.8    2.7    3.99    2.46    2.34    2.55    2.75    2.77    3.20    2.10    0.16    0.07    0.02    0.06    0.06    0.06    0.07    0.50   11.95   11.99    0.05    5.29    0.00    6.65    0.00
 2003 304    22     0     0    17.4   37.7   35.1    2.7    4.67    2.43    2.31    2.52    2.73    2.76    3.19    2.09    0.14    0.07    0.02    0.06    0.06    0.06    0.06    0.49   12.40   12.33    0.05    5.46    0.00    6.94    0.00
 2003 305    23     0     0    17.4   38.1   35.4    2.7    5.46    2.34    2.29    2.50    2.72    2.74    3.18    2.09    0.22    0.07    0.02    0.06    0.06    0.06    0.06    0.49   12.88   12.65    0.05    5.60    0.00    7.27    0.00
 2003 306    24     0     0    17.4   38.4   35.8    2.6    5.73    2.35    2.30    2.51    2.73    2.75    3.19    2.10    0.18    0.07    0.02    0.06    0.06    0.05    0.06    0.48   13.31   13.02    0.05    5.72    0.00    7.58    0.00
 2003 307    25     0     0    17.4   38.7   36.1    2.6    5.95    2.35    2.32    2.53    2.75    2.77    3.20    2.12    0.17    0.07    0.02    0.06    0.06    0.05    0.05    0.48   13.70   13.35    0.05    5.83    0.00    7.88    0.00
 2003 308    26     0     0    17.4   39.0   36.4    2.5    6.15    2.36    2.33    2.54    2.76    2.78    3.22    2.13    0.17    0.07    0.02    0.06    0.06    0.05    0.05    0.47   14.07   13.67    0.05    5.91    0.00    8.15    0.00
 2003 309    27     0     0    17.4   39.2   36.7    2.5    6.32    2.37    2.35    2.56    2.77    2.79    3.23    2.15    0.16    0.07    0.02    0.06    0.06    0.05    0.05    0.46   14.39   13.95    0.05    5.99    0.00    8.40    0.00
 2003 310    28     0     0    17.4   39.4   37.0    2.5    2.94    3.40    3.14    2.87    2.84    2.80    3.24    2.16    0.15    0.07    0.02    0.06    0.06    0.05    0.05    0.46   14.70   14.23    0.05    6.06    0.00    8.64    0.00
 2003 311    29     0     0    17.4   39.7   37.3    2.4    2.78    2.88    3.44    3.21    3.08    2.89    3.22    2.15    0.11    0.07    0.02    0.06    0.05    0.05    0.05    0.45   15.06   14.54    0.05    6.17    0.00    8.90    0.00
 2003 312    30     0     0    17.4   40.0   37.6    2.4    3.09    2.59    3.24    3.26    3.21    3.15    3.21    2.15    0.19    0.07    0.02    0.06    0.06    0.05    0.05    0.45   15.48   14.80    0.05    6.27    0.00    9.20    0.00
 2003 313    31     0     0    17.4   40.3   37.9    2.4    3.74    2.42    2.86    3.09    3.10    3.06    3.43    2.29    0.19    0.07    0.02    0.06    0.06    0.05    0.05    0.44   15.89   15.12    0.05    6.38    0.00    9.51    0.00
 2003 314    32     0     0    17.4   40.7   38.2    2.5    4.59    2.36    2.73    3.04    3.08    3.07    3.43    2.28    0.21    0.07    0.02    0.06    0.06    0.06    0.05    0.44   16.33   15.44    0.05    6.48    0.00    9.85    0.00
 2003 315    33     0     0    17.4   41.0   38.5    2.4    5.43    2.29    2.71    3.00    3.05    3.05    3.41    2.27    0.19    0.07    0.02    0.06    0.06    0.06    0.05    0.44   16.71   15.76    0.05    6.56    0.00   10.15    0.00
 2003 316    34     0     0    17.4   41.2   38.8    2.4    5.63    2.30    2.72    3.01    3.06    3.06    3.42    2.29    0.17    0.07    0.02    0.06    0.06    0.06    0.05    0.44   17.06   16.06    0.05    6.63    0.00   10.43    0.00
 2003 317    35     0     0    17.4   41.5   39.1    2.4    5.81    2.31    2.73    3.02    3.08    3.07    3.43    2.30    0.16    0.07    0.02    0.06    0.06    0.06    0.05    0.43   17.38   16.35    0.05    6.69    0.00   10.70    0.00
 2003 318    36     0     0    17.4   41.8   39.4    2.4    5.98    2.32    2.75    3.04    3.09    3.08    3.44    2.31    0.14    0.07    0.02    0.06    0.06    0.06    0.05    0.43   17.70   16.64    0.05    6.74    0.00   10.96    0.00
 2003 319    37     0     0    17.4   42.0   39.7    2.3    6.12    2.33    2.76    3.05    3.11    3.09    3.46    2.33    0.13    0.06    0.02    0.06    0.06    0.06    0.05    0.43   18.00   16.91    0.05    6.79    0.00   11.21    0.00
 2003 320    38     0     0    17.4   42.3   39.9    2.3    6.26    2.34    2.78    3.06    3.12    3.11    3.47    2.34    0.12    0.06    0.02    0.06    0.06    0.06    0.05    0.42   18.29   17.18    0.05    6.84    0.00   11.45    0.00
 2003 321    39     0     0    17.4   42.5   40.2    2.3    6.38    2.35    2.79    3.08    3.14    3.12    3.48    2.35    0.11    0.06    0.02    0.06    0.06    0.06    0.05    0.42   18.56   17.44    0.05    6.87    0.00   11.69    0.00
 2003 322    40     0     0    17.4   42.7   40.4    2.3    6.48    2.35    2.81    3.09    3.15    3.13    3.49    2.37    0.10    0.06    0.02    0.06    0.06    0.06    0.05    0.42   18.82   17.69    0.05    6.91    0.00   11.91    0.00
 2003 323    41     0     0    17.4   42.9   40.7    2.2    6.58    2.36    2.82    3.11    3.17    3.15    3.50    2.38    0.09    0.06    0.02    0.06    0.06    0.06    0.05    0.42   19.06   17.92    0.05    6.94    0.00   12.12    0.00
 2003 324    42     0     0    17.4   43.1   40.9    2.2    6.67    2.37    2.84    3.12    3.18    3.16    3.52    2.39    0.08    0.06    0.02    0.06    0.06    0.06    0.05    0.41   19.29   18.15    0.05    6.96    0.00   12.33    0.00
 2003 325    43     0     0    17.4   43.3   41.1    2.2    6.75    2.38    2.85    3.14    3.20    3.17    3.53    2.41    0.07    0.06    0.02    0.06    0.06    0.06    0.05    0.41   19.51   18.38    0.05    6.99    0.00   12.53    0.00
 2003 326    44     0     0    17.4   43.5   41.4    2.2    6.82    2.39    2.87    3.15    3.21    3.19    3.54    2.42    0.06    0.05    0.02    0.05    0.06    0.06    0.05    0.41   19.72   18.59    0.05    7.00    0.00   12.72    0.00
 2003 327    45     0     0    17.4   43.7   41.6    2.1    6.88    2.39    2.88    3.16    3.22    3.20    3.56    2.43    0.04    0.05    0.02    0.05    0.05    0.06    0.05    0.40   19.93   18.80    0.05    7.02    0.00   12.90    0.00
 2003 328    46     0     0    17.4   43.9   41.8    2.1    6.93    2.40    2.89    3.18    3.24    3.21    3.57    2.45    0.03    0.05    0.02    0.05    0.05    0.06    0.05    0.40   20.12   19.00    0.05    7.04    0.00   13.08    0.00
 2003 329    47     0     0    17.4   44.1   42.0    2.1    6.98    2.41    2.91    3.19    3.25    3.22    3.58    2.46    0.03    0.05    0.02    0.05    0.05    0.06    0.05    0.40   20.31   19.19    0.05    7.05    0.00   13.26    0.00
 2003 330    48     0     0    17.4   44.2   42.1    2.1    7.02    2.41    2.92    3.20    3.27    3.24    3.59    2.47    0.02    0.05    0.02    0.05    0.05    0.06    0.05    0.40   20.50   19.38    0.05    7.06    0.00   13.43    0.00
 2003 331    49     0     0    17.4   44.4   42.3    2.1    7.07    2.42    2.94    3.22    3.28    3.25    3.61    2.48    0.02    0.05    0.01    0.05    0.05    0.05    0.05    0.39   20.68   19.57    0.05    7.08    0.00   13.60    0.00
 2003 332    50     0     0    17.4   44.6   42.5    2.1    7.11    2.43    2.95    3.23    3.30    3.26    3.62    2.50    0.02    0.05    0.01    0.05    0.05    0.05    0.05    0.39   20.87   19.76    0.05    7.09    0.00   13.78    0.00
 2003 333    51     0     0    17.4   44.8   42.7    2.0    7.15    2.43    2.96    3.24    3.31    3.28    3.63    2.51    0.02    0.05    0.01    0.05    0.05    0.05    0.05    0.39   21.05   19.94    0.05    7.11    0.00   13.95    0.00
 2003 334    52     0     0    17.4   44.9   42.9    2.0    7.19    2.44    2.97    3.25    3.32    3.29    3.64    2.52    0.02    0.05    0.01    0.05    0.05    0.05    0.05    0.39   21.24   20.12    0.05    7.12    0.00   14.12    0.00
 2003 335    53     0     0    17.4   45.1   43.1    2.0    7.23    2.44    2.99    3.27    3.34    3.30    3.65    2.53    0.02    0.05    0.01    0.05    0.05    0.05    0.05    0.39   21.42   20.30    0.05    7.14    0.00   14.29    0.00
 2003 336    54     0     0    17.4   45.3   43.2    2.0    7.27    2.45    3.00    3.28    3.35    3.31    3.67    2.55    0.02    0.05    0.01    0.05    0.05    0.05    0.05    0.38   21.60   20.48    0.05    7.15    0.00   14.45    0.00
 2003 337    55     0     0    17.4   45.4   43.4    2.0    7.31    2.45    3.01    3.29    3.36    3.33    3.68    2.56    0.02    0.05    0.01    0.05    0.05    0.05    0.05    0.38   21.78   20.66    0.05    7.16    0.00   14.62    0.00
 2003 338    56     0     0    17.4   45.6   43.6    2.0    7.36    2.46    3.02    3.30    3.38    3.34    3.69    2.57    0.02    0.05    0.01    0.05    0.05    0.05    0.05    0.38   21.96   20.83    0.05    7.18    0.00   14.79    0.00
 2003 339    57     0     0    17.4   45.8   43.8    2.0    7.40    2.46    3.03    3.32    3.39    3.35    3.70    2.58    0.02    0.04    0.01    0.05    0.05    0.05    0.05    0.38   22.14   21.00    0.05    7.19    0.00   14.95    0.00
 2003 340    58     0     0    17.4   45.9   43.9    2.0    7.45    2.46    3.05    3.33    3.40    3.36    3.71    2.59    0.02    0.04    0.01    0.05    0.05    0.05    0.05    0.38   22.31   21.17    0.05    7.20    0.00   15.11    0.00
 2003 341    59     0     0    17.4   46.1   44.1    2.0    7.49    2.47    3.06    3.34    3.42    3.37    3.73    2.61    0.02    0.04    0.01    0.05    0.05    0.05    0.05    0.38   22.48   21.34    0.05    7.22    0.00   15.27    0.00
 2003 342    60     0     0    17.4   46.2   44.3    2.0    7.53    2.47    3.07    3.35    3.43    3.39    3.74    2.62    0.02    0.04    0.01    0.05    0.05    0.05    0.05    0.37   22.66   21.51    0.05    7.23    0.00   15.43    0.00
 2003 343    61     0     0    17.4   46.4   44.4    1.9    7.57    2.47    3.08    3.36    3.44    3.40    3.75    2.63    0.02    0.04    0.01    0.05    0.05    0.05    0.05    0.37   22.83   21.68    0.05    7.24    0.00   15.59    0.00
 2003 344    62     0     0    17.4   46.6   44.6    1.9    7.61    2.48    3.09    3.37    3.45    3.41    3.76    2.64    0.02    0.04    0.01    0.05    0.05    0.05    0.05    0.37   23.00   21.85    0.05    7.25    0.00   15.75    0.00
 2003 345    63     0     0    17.4   46.7   44.8    1.9    7.65    2.48    3.10    3.39    3.47    3.42    3.77    2.65    0.02    0.04    0.01    0.05    0.05    0.05    0.05    0.37   23.17   22.02    0.05    7.27    0.00   15.91    0.00
 2003 346    64     0     0    17.4   46.9   44.9    1.9    7.70    2.48    3.11    3.40    3.48    3.43    3.78    2.67    0.02    0.04    0.01    0.05    0.05    0.05    0.05    0.37   23.34   22.18    0.05    7.28    0.00   16.06    0.00
 2003 347    65     0     0    17.4   47.0   45.1    1.9    7.74    2.48    3.12    3.41    3.49    3.45    3.80    2.68    0.02    0.04    0.01    0.05    0.05    0.05    0.05    0.37   23.51   22.35    0.05    7.29    0.00   16.22    0.00
 2003 348    66     0     0    17.4   47.2   45.3    1.9    7.78    2.49    3.13    3.42    3.51    3.46    3.81    2.69    0.02    0.04    0.01    0.05    0.05    0.05    0.05    0.36   23.68   22.51    0.05    7.31    0.00   16.38    0.00
 2003 349    67     0     0    17.4   47.3   45.4    1.9    7.82    2.49    3.14    3.43    3.52    3.47    3.82    2.70    0.03    0.04    0.01    0.05    0.05    0.05    0.05    0.36   23.85   22.67    0.05    7.32    0.00   16.53    0.00
 2003 350    68     0     0    17.4   47.5   45.6    1.9    7.86    2.49    3.15    3.44    3.53    3.48    3.83    2.71    0.03    0.04    0.01    0.05    0.05    0.05    0.05    0.36   24.02   22.84    0.05    7.33    0.00   16.69    0.00
 2003 351    69     0     0    17.4   47.6   45.8    1.9    7.90    2.49    3.16    3.45    3.54    3.49    3.84    2.72    0.03    0.04    0.01    0.05    0.05    0.05    0.05    0.36   24.18   22.99    0.05    7.34    0.00   16.84    0.00
 2003 352    70     0     0    17.4   47.8   45.9    1.9    7.94    2.49    3.17    3.46    3.55    3.50    3.85    2.73    0.03    0.04    0.01    0.05    0.05    0.05    0.05    0.36   24.35   23.15    0.05    7.36    0.00   16.99    0.00
 2003 353    71     0     0    17.4   47.9   46.1    1.9    7.99    2.49    3.18    3.47    3.57    3.51    3.86    2.74    0.03    0.04    0.01    0.05    0.05    0.05    0.05    0.36   24.51   23.30    0.05    7.37    0.00   17.14    0.00
 2003 354    72     0     0    17.4   48.1   46.2    1.9    8.03    2.49    3.19    3.48    3.58    3.53    3.88    2.76    0.03    0.04    0.01    0.05    0.05    0.05    0.05    0.36   24.67   23.46    0.05    7.38    0.00   17.29    0.00
 2003 355    73     0     0    17.4   48.2   46.4    1.9    8.07    2.49    3.20    3.49    3.59    3.54    3.89    2.77    0.03    0.04    0.01    0.05    0.05    0.05    0.05    0.35   24.83   23.61    0.05    7.39    0.00   17.44    0.00
 2003 356    74     0     0    17.4   48.4   46.5    1.9    8.11    2.49    3.21    3.50    3.60    3.55    3.90    2.78    0.03    0.04    0.01    0.05    0.05    0.05    0.05    0.35   24.99   23.77    0.05    7.40    0.00   17.58    0.00
 2003 357    75     0     0    17.4   48.5   46.7    1.9    8.15    2.49    3.22    3.51    3.61    3.56    3.91    2.79    0.03    0.04    0.01    0.05    0.05    0.05    0.05    0.35   25.15   23.92    0.05    7.42    0.00   17.73    0.00
 2003 358    76     0     0    17.4   48.7   46.8    1.8    8.19    2.49    3.23    3.52    3.62    3.57    3.92    2.80    0.03    0.04    0.01    0.05    0.05    0.05    0.05    0.35   25.30   24.07    0.05    7.43    0.00   17.88    0.00
 2003 359    77     0     0    17.4   48.8   47.0    1.8    8.24    2.49    3.24    3.53    3.64    3.58    3.93    2.81    0.04    0.04    0.01    0.05    0.05    0.05    0.05    0.35   25.46   24.22    0.05    7.44    0.00   18.02    0.00
 2003 360    78     0     0    17.4   49.0   47.1    1.8    8.28    2.49    3.25    3.54    3.65    3.59    3.94    2.82    0.04    0.04    0.01    0.05    0.05    0.05    0.05    0.35   25.61   24.36    0.05    7.45    0.00   18.16    0.00
 2003 361    79     0     0    17.4   49.1   47.3    1.8    8.32    2.49    3.25    3.55    3.66    3.60    3.95    2.83    0.04    0.04    0.01    0.05    0.05    0.05    0.05    0.35   25.76   24.51    0.05    7.46    0.00   18.30    0.00
 2003 362    80     0     0    17.4   49.2   47.4    1.8    8.36    2.49    3.26    3.56    3.67    3.61    3.96    2.84    0.04    0.04    0.01    0.05    0.05    0.05    0.05    0.35   25.91   24.65    0.05    7.47    0.00   18.44    0.00
 2003 363    81     0     0    17.4   49.4   47.6    1.8    8.40    2.49    3.27    3.57    3.68    3.62    3.97    2.85    0.04    0.04    0.01    0.04    0.05    0.05    0.05    0.35   26.06   24.79    0.05    7.48    0.00   18.58    0.00
 2003 364    82     0     0    17.4   49.5   47.7    1.8    8.44    2.49    3.28    3.58    3.69    3.63    3.98    2.86    0.04    0.04    0.01    0.04    0.05    0.05    0.05    0.35   26.21   24.92    0.05    7.50    0.00   18.71    0.00
 2003 365    83     0     0    17.4   49.6   47.8    1.8    8.48    2.49    3.28    3.59    3.70    3.64    3.99    2.87    0.04    0.04    0.01    0.04    0.05    0.05    0.05    0.34   26.35   25.06    0.05    7.51    0.00   18.84    0.00
 2004 001    84     0     0    17.4   49.8   48.0    1.8    8.53    2.49    3.29    3.60    3.71    3.65    4.00    2.88    0.04    0.03    0.01    0.04    0.05    0.05    0.05    0.34   26.49   25.20    0.05    7.52    0.00   18.97    0.00
 2004 002    85     0     0    17.4   49.9   48.1    1.8    8.57    2.48    3.30    3.61    3.72    3.66    4.01    2.89    0.04    0.03    0.01    0.04    0.05    0.05    0.05    0.34   26.63   25.33    0.05    7.53    0.00   19.10    0.00
 2004 003    86     0     0    17.4   50.0   48.2    1.8    8.61    2.48    3.30    3.61    3.73    3.67    4.02    2.90    0.04    0.03    0.01    0.04    0.05    0.05    0.05    0.34   26.78   25.47    0.05    7.54    0.00   19.24    0.00
 2004 004    87     0     0    17.4   50.2   48.4    1.8    8.65    2.48    3.31    3.62    3.74    3.68    4.03    2.91    0.04    0.03    0.01    0.04    0.05    0.05    0.05    0.34   26.92   25.61    0.05    7.55    0.00   19.37    0.00
 2004 005    88     0     0    17.4   50.3   48.5    1.8    8.69    2.48    3.32    3.63    3.75    3.69    4.04    2.92    0.04    0.03    0.01    0.04    0.05    0.05    0.05    0.34   27.07   25.75    0.05    7.56    0.00   19.51    0.00
 2004 006    89     0     0    17.4   50.5   48.7    1.8    8.74    2.48    3.33    3.64    3.76    3.71    4.05    2.93    0.04    0.03    0.01    0.04    0.05    0.05    0.05    0.34   27.23   25.90    0.05    7.57    0.00   19.65    0.00
 2004 007    90     0     0    17.4   50.6   48.8    1.8    8.78    2.48    3.34    3.65    3.78    3.72    4.07    2.94    0.04    0.03    0.01    0.04    0.05    0.05    0.05    0.34   27.38   26.06    0.05    7.59    0.00   19.80    0.00
 2004 008    91     0     0    17.4   50.7   49.0    1.8    8.82    2.48    3.34    3.66    3.79    3.73    4.08    2.95    0.05    0.03    0.01    0.04    0.04    0.05    0.05    0.34   27.54   26.21    0.05    7.60    0.00   19.94    0.00
 2004 009    92     0     0    17.4   50.9   49.1    1.8    8.86    2.48    3.35    3.67    3.80    3.74    4.09    2.96    0.05    0.03    0.01    0.04    0.04    0.05    0.05    0.34   27.70   26.36    0.05    7.61    0.00   20.09    0.00
 2004 010    93     0     0    17.4   51.0   49.3    1.8    8.91    2.48    3.36    3.68    3.81    3.75    4.10    2.97    0.05    0.03    0.01    0.04    0.04    0.05    0.05    0.34   27.85   26.51    0.05    7.62    0.00   20.23    0.00
 2004 011    94     0     0    17.4   51.2   49.4    1.8    8.95    2.47    3.37    3.69    3.82    3.76    4.11    2.98    0.05    0.03    0.01    0.04    0.04    0.05    0.05    0.33   28.00   26.65    0.05    7.63    0.00   20.37    0.00
 2004 012    95     0     0    17.4   51.3   49.6    1.8    8.99    2.47    3.37    3.70    3.83    3.77    4.12    2.99    0.05    0.03    0.01    0.04    0.04    0.05    0.05    0.33   28.15   26.79    0.05    7.64    0.00   20.50    0.00
 2004 013    96     0     0    17.4   51.4   49.7    1.7    9.03    2.47    3.38    3.71    3.84    3.78    4.13    3.00    0.05    0.03    0.01    0.04    0.04    0.05    0.05    0.33   28.29   26.93    0.05    7.66    0.00   20.64    0.00
 2004 014    97     0     0    17.4   51.6   49.8    1.7    9.08    2.47    3.39    3.72    3.85    3.79    4.14    3.01    0.05    0.03    0.01    0.04    0.04    0.05    0.05    0.33   28.44   27.06    0.05    7.67    0.00   20.77    0.00
 2004 015    98     0     0    17.4   51.7   50.0    1.7    9.12    2.47    3.39    3.73    3.86    3.80    4.15    3.02    0.05    0.03    0.01    0.04    0.04    0.05    0.05    0.33   28.58   27.20    0.05    7.68    0.00   20.90    0.00
 2004 016    99     0     0    17.4   51.8   50.1    1.7    9.16    2.46    3.40    3.74    3.87    3.81    4.16    3.03    0.05    0.03    0.01    0.04    0.04    0.05    0.05    0.33   28.73   27.34    0.05    7.69    0.00   21.04    0.00
 2004 017   100     0     0    17.4   52.0   50.2    1.7    9.20    2.46    3.41    3.75    3.88    3.82    4.17    3.04    0.05    0.03    0.01    0.04    0.04    0.05    0.05    0.33   28.87   27.48    0.05    7.70    0.00   21.17    0.00
 2004 018   101     0     0    17.4   52.1   50.4    1.7    9.25    2.46    3.41    3.75    3.90    3.83    4.18    3.05    0.05    0.03    0.01    0.04    0.04    0.05    0.05    0.33   29.01   27.61    0.05    7.71    0.00   21.30    0.00
 2004 019   102     0     0    17.4   52.2   50.5    1.7    9.29    2.46    3.42    3.76    3.91    3.84    4.19    3.06    0.05    0.03    0.01    0.04    0.04    0.05    0.05    0.33   29.16   27.75    0.05    7.72    0.00   21.43    0.00
 2004 020   103     0     0    17.4   52.4   50.7    1.7    0.80    4.32    5.66    4.72    4.17    3.91    4.20    3.07    0.05    0.03    0.01    0.04    0.04    0.05    0.05    0.33   29.30   27.89    0.05    7.73    0.00   21.57    0.00
 2004 021   104     0     0    19.4   50.5   48.8    1.7    1.66    3.47    4.45    4.55    4.24    3.96    4.26    3.02    0.02    0.03    0.01    0.04    0.04    0.05    0.05    0.33   29.55   28.07    0.05    7.80    0.00   21.74    0.00
 2004 022   105     0     0    19.4   50.8   49.0    1.9    2.52    3.29    4.14    4.53    4.27    3.98    4.29    3.00    0.19    0.04    0.01    0.04    0.04    0.05    0.05    0.33   29.93   28.23    0.05    7.88    0.00   22.05    0.00
 2004 023   106     0     0    19.4   51.2   49.3    1.9    3.38    3.25    4.09    4.46    4.23    3.96    4.28    2.99    0.19    0.05    0.01    0.04    0.05    0.05    0.05    0.33   30.31   28.53    0.05    7.95    0.00   22.36    0.00
 2004 024   107     0     0    19.4   51.4   49.6    1.9    4.46    3.18    4.02    4.37    4.17    3.92    4.26    2.97    0.18    0.05    0.01    0.04    0.05    0.05    0.05    0.33   30.64   28.82    0.05    8.00    0.00   22.64    0.00
 2004 025   108     0     0    19.4   51.7   49.8    1.8    4.67    3.18    4.03    4.38    4.18    3.93    4.27    2.98    0.16    0.05    0.01    0.04    0.05    0.05    0.05    0.33   30.93   29.08    0.05    8.05    0.00   22.89    0.00
 2004 026   109     0     0    19.4   51.9   50.1    1.8    4.85    3.18    4.04    4.38    4.19    3.94    4.28    2.99    0.15    0.05    0.01    0.04    0.05    0.05    0.05    0.33   31.20   29.31    0.05    8.09    0.00   23.11    0.00
 2004 027   110     0     0    19.4   52.1   50.3    1.8    5.01    3.18    4.04    4.39    4.20    3.95    4.29    2.99    0.13    0.05    0.01    0.04    0.05    0.05    0.05    0.33   31.45   29.54    0.05    8.12    0.00   23.33    0.00
 2004 028   111     0     0    19.4   52.3   50.5    1.8    5.17    3.18    4.05    4.40    4.21    3.96    4.30    3.00    0.11    0.05    0.01    0.04    0.04    0.05    0.05    0.33   31.71   29.78    0.05    8.16    0.00   23.55    0.00
 2004 029   112     0     0    19.4   52.6   50.8    1.8    5.31    3.19    4.06    4.41    4.22    3.97    4.31    3.02    0.11    0.05    0.01    0.04    0.04    0.05    0.05    0.33   31.95   30.01    0.05    8.19    0.00   23.77    0.00
 2004 030   113     0     0    19.4   52.8   51.0    1.8    5.44    3.19    4.07    4.42    4.23    3.98    4.32    3.03    0.10    0.05    0.01    0.04    0.04    0.05    0.05    0.32   32.19   30.23    0.05    8.22    0.00   23.97    0.00
 2004 031   114     0     0    19.4   53.0   51.2    1.8    5.56    3.19    4.08    4.43    4.25    3.99    4.33    3.04    0.09    0.05    0.01    0.04    0.04    0.05    0.05    0.32   32.42   30.44    0.05    8.24    0.00   24.17    0.00
 2004 032   115     0     0    19.4   53.2   51.4    1.8    5.67    3.20    4.09    4.44    4.26    4.01    4.35    3.05    0.08    0.05    0.01    0.04    0.04    0.05    0.05    0.32   32.63   30.65    0.05    8.26    0.00   24.37    0.00
 2004 033   116     0     0    19.4   53.3   51.6    1.7    5.77    3.20    4.10    4.45    4.27    4.02    4.36    3.06    0.07    0.04    0.01    0.04    0.04    0.05    0.05    0.32   32.83   30.85    0.05    8.28    0.00   24.55    0.00
 2004 034   117     0     0    19.4   53.5   51.8    1.7    5.85    3.20    4.10    4.46    4.28    4.03    4.37    3.07    0.06    0.04    0.01    0.04    0.04    0.05    0.05    0.32   33.03   31.04    0.05    8.30    0.00   24.73    0.00
 2004 035   118     0     0    19.4   53.7   52.0    1.7    5.93    3.21    4.11    4.47    4.29    4.04    4.38    3.08    0.05    0.04    0.01    0.04    0.04    0.05    0.05    0.32   33.21   31.22    0.05    8.31    0.00   24.90    0.00
 2004 036   119     0     0    19.4   53.8   52.1    1.7    6.01    3.21    4.12    4.48    4.30    4.05    4.39    3.09    0.04    0.04    0.01    0.04    0.04    0.05    0.05    0.32   33.38   31.38    0.05    8.33    0.00   25.05    0.00
 2004 037   120     0     0    19.4   54.0   52.3    1.7    6.07    3.21    4.13    4.48    4.31    4.06    4.40    3.10    0.03    0.04    0.01    0.04    0.04    0.05    0.05    0.32   33.54   31.53    0.05    8.34    0.00   25.20    0.00
 2004 038   121     0     0    19.4   54.1   52.4    1.7    6.13    3.21    4.13    4.49    4.32    4.07    4.41    3.11    0.03    0.04    0.01    0.04    0.04    0.05    0.05    0.32   33.68   31.67    0.05    8.35    0.00   25.33    0.00
 2004 039   122     0     0    19.4   54.3   52.6    1.7    6.18    3.21    4.14    4.50    4.33    4.08    4.42    3.12    0.02    0.04    0.01    0.04    0.04    0.05    0.05    0.32   33.82   31.80    0.05    8.36    0.00   25.46    0.00
 2004 040   123     0     0    19.4   54.4   52.7    1.7    6.23    3.20    4.14    4.50    4.34    4.08    4.43    3.13    0.02    0.04    0.01    0.04    0.04    0.05    0.05    0.32   33.96   31.93    0.05    8.37    0.00   25.59    0.00
 2004 041   124     0     0    19.4   54.5   52.8    1.7    6.28    3.20    4.15    4.51    4.35    4.09    4.44    3.13    0.02    0.04    0.01    0.04    0.04    0.05    0.05    0.32   34.10   32.06    0.05    8.38    0.00   25.72    0.00
 2004 042   125     0     0    19.4   54.6   52.9    1.7    6.33    3.20    4.15    4.52    4.35    4.10    4.45    3.14    0.02    0.04    0.01    0.04    0.04    0.05    0.05    0.32   34.24   32.19    0.05    8.39    0.00   25.85    0.00
 2004 043   126     0     0    19.4   54.8   53.1    1.7    6.38    3.20    4.16    4.52    4.36    4.11    4.46    3.15    0.02    0.04    0.01    0.04    0.04    0.05    0.05    0.32   34.38   32.32    0.05    8.40    0.00   25.98    0.00
 2004 044   127     0     0    19.4   54.9   53.2    1.7    6.44    3.20    4.17    4.53    4.37    4.12    4.47    3.16    0.02    0.04    0.01    0.04    0.04    0.05    0.05    0.32   34.53   32.47    0.05    8.41    0.00   26.12    0.00
 2004 045   128     0     0    19.4   55.1   53.4    1.7    6.49    3.20    4.17    4.54    4.39    4.13    4.48    3.17    0.02    0.04    0.01    0.04    0.04    0.05    0.05    0.32   34.69   32.62    0.05    8.42    0.00   26.27    0.00
 2004 046   129     0     0    19.4   55.2   53.5    1.7    6.54    3.20    4.18    4.55    4.40    4.14    4.49    3.18    0.02    0.04    0.01    0.04    0.04    0.05    0.05    0.32   34.85   32.78    0.05    8.44    0.00   26.42    0.00
 2004 047   130     0     0    19.4   55.4   53.7    1.7    6.59    3.21    4.19    4.56    4.41    4.15    4.50    3.19    0.02    0.04    0.01    0.04    0.04    0.05    0.05    0.32   35.02   32.94    0.05    8.45    0.00   26.57    0.00
 2004 048   131     0     0    19.4   55.5   53.9    1.7    6.64    3.21    4.20    4.57    4.42    4.17    4.51    3.20    0.02    0.04    0.01    0.04    0.04    0.04    0.05    0.32   35.18   33.10    0.05    8.46    0.00   26.72    0.00
 2004 049   132     0     0    19.4   55.7   54.0    1.7    6.69    3.21    4.21    4.58    4.43    4.18    4.52    3.21    0.02    0.04    0.01    0.04    0.04    0.04    0.05    0.32   35.35   33.26    0.05    8.47    0.00   26.88    0.00
 2004 050   133     0     0    19.4   55.8   54.2    1.7    6.74    3.21    4.21    4.59    4.44    4.19    4.53    3.23    0.02    0.04    0.01    0.04    0.04    0.04    0.05    0.32   35.51   33.42    0.05    8.48    0.00   27.03    0.00
 2004 051   134     0     0    19.4   56.0   54.3    1.6    6.79    3.21    4.22    4.60    4.45    4.20    4.54    3.24    0.02    0.04    0.01    0.04    0.04    0.04    0.05    0.32   35.67   33.57    0.05    8.50    0.00   27.18    0.00
 2004 052   135     0     0    19.4   56.1   54.5    1.6    6.84    3.21    4.23    4.60    4.46    4.21    4.56    3.25    0.03    0.04    0.01    0.04    0.04    0.04    0.05    0.32   35.83   33.72    0.05    8.51    0.00   27.32    0.00
 2004 053   136     0     0    19.4   56.3   54.6    1.6    6.90    3.21    4.23    4.61    4.47    4.22    4.57    3.26    0.03    0.03    0.01    0.04    0.04    0.04    0.05    0.31   35.99   33.87    0.05    8.52    0.00   27.47    0.00
 2004 054   137     0     0    19.4   56.4   54.8    1.6    6.95    3.21    4.24    4.62    4.49    4.23    4.58    3.27    0.03    0.03    0.01    0.04    0.04    0.04    0.04    0.31   36.15   34.02    0.05    8.53    0.00   27.62    0.00
 2004 055   138     0     0    19.4   56.6   54.9    1.6    7.00    3.21    4.25    4.63    4.50    4.24    4.59    3.28    0.03    0.03    0.01    0.04    0.04    0.04    0.04    0.31   36.31   34.18    0.05    8.54    0.00   27.77    0.00
 2004 056   139     0     0    19.4   56.7   55.1    1.6    7.05    3.21    4.26    4.64    4.51    4.25    4.60    3.29    0.03    0.03    0.01    0.04    0.04    0.04    0.04    0.31   36.47   34.33    0.05    8.56    0.00   27.92    0.00
 2004 057   140     0     0    19.4   56.9   55.2    1.6    7.10    3.21    4.26    4.65    4.52    4.26    4.61    3.30    0.03    0.03    0.01    0.04    0.04    0.04    0.04    0.31   36.64   34.48    0.05    8.57    0.00   28.07    0.00
 2004 058   141     0     0    19.4   57.0   55.4    1.6    7.15    3.21    4.27    4.66    4.53    4.27    4.62    3.31    0.03    0.03    0.01    0.04    0.04    0.04    0.04    0.31   36.80   34.64    0.05    8.58    0.00   28.22    0.00
 2004 059   142     0     0    19.4   57.2   55.5    1.6    2.19    5.55    4.59    4.67    4.54    4.29    4.63    3.32    0.03    0.03    0.01    0.04    0.04    0.04    0.04    0.31   36.96   34.79    0.05    8.59    0.00   28.37    0.00
 2004 060   143     0     0    19.4   57.3   55.7    1.6    2.02    5.17    4.78    5.04    4.60    4.30    4.64    3.33    0.01    0.04    0.01    0.04    0.04    0.04    0.04    0.31   37.20   34.97    0.05    8.65    0.00   28.54    0.00
 2004 061   144     0     0    19.4   57.6   55.9    1.8    2.77    4.64    5.19    5.18    4.64    4.26    4.63    3.31    0.20    0.04    0.01    0.04    0.04    0.04    0.04    0.31   37.57   35.14    0.05    8.72    0.00   28.85    0.00
 2004 062   145     0     0    19.4   58.0   56.3    1.7    3.91    4.36    5.10    5.23    4.69    4.22    4.61    3.29    0.14    0.04    0.01    0.04    0.04    0.04    0.04    0.31   37.94   35.51    0.05    8.77    0.00   29.17    0.00
 2004 063   146     0     0    19.4   58.3   56.5    1.7    5.22    4.23    4.86    5.16    4.65    4.18    4.59    3.27    0.16    0.05    0.01    0.04    0.04    0.04    0.04    0.31   38.29   35.78    0.05    8.83    0.00   29.46    0.00
 2004 064   147     0     0    19.4   58.5   56.8    1.7    6.52    4.10    4.75    5.05    4.58    4.15    4.57    3.25    0.16    0.05    0.01    0.04    0.04    0.04    0.04    0.30   38.60   36.06    0.05    8.87    0.00   29.73    0.00
 2004 065   148     0     0    19.4   58.8   57.1    1.7    6.74    4.09    4.76    5.06    4.59    4.15    4.58    3.25    0.15    0.05    0.01    0.04    0.04    0.04    0.04    0.30   38.86   36.31    0.05    8.90    0.00   29.96    0.00
 2004 066   149     0     0    19.4   59.0   57.3    1.7    6.92    4.09    4.76    5.07    4.60    4.16    4.58    3.26    0.14    0.05    0.01    0.04    0.04    0.04    0.04    0.30   39.09   36.51    0.05    8.93    0.00   30.16    0.00
 2004 067   150     0     0    19.4   59.1   57.4    1.7    7.08    4.08    4.77    5.07    4.60    4.17    4.59    3.27    0.13    0.05    0.01    0.04    0.04    0.04    0.04    0.30   39.30   36.70    0.05    8.95    0.00   30.34    0.00
 2004 068   151     0     0    19.4   59.3   57.6    1.7    7.23    4.08    4.77    5.08    4.61    4.17    4.60    3.28    0.12    0.05    0.01    0.04    0.04    0.04    0.04    0.30   39.48   36.88    0.05    8.97    0.00   30.51    0.00
 2004 069   152     0     0    19.4   59.5   57.8    1.7    7.37    4.07    4.78    5.08    4.62    4.18    4.60    3.28    0.11    0.05    0.01    0.04    0.04    0.04    0.04    0.30   39.67   37.06    0.05    9.00    0.00   30.67    0.00
 2004 070   153     0     0    19.4   59.6   58.0    1.6    7.50    4.07    4.78    5.09    4.63    4.19    4.61    3.29    0.10    0.05    0.01    0.04    0.04    0.04    0.04    0.30   39.85   37.23    0.05    9.01    0.00   30.83    0.00
 2004 071   154     0     0    19.4   59.8   58.2    1.6    7.62    4.07    4.79    5.10    4.64    4.19    4.62    3.30    0.08    0.05    0.01    0.04    0.04    0.04    0.04    0.30   40.03   37.41    0.05    9.03    0.00   30.99    0.00
 2004 072   155     0     0    19.4   59.9   58.3    1.6    7.73    4.06    4.79    5.11    4.64    4.20    4.63    3.31    0.07    0.05    0.01    0.04    0.04    0.04    0.04    0.30   40.21   37.59    0.05    9.05    0.00   31.16    0.00
 2004 073   156     0     0    19.4   60.1   58.5    1.6    7.84    4.06    4.80    5.12    4.65    4.21    4.64    3.32    0.06    0.05    0.01    0.04    0.04    0.04    0.04    0.29   40.38   37.77    0.05    9.07    0.00   31.32    0.00
 2004 074   157     0     0    19.4   60.3   58.7    1.6    7.94    4.06    4.81    5.13    4.66    4.22    4.64    3.33    0.06    0.04    0.01    0.04    0.04    0.03    0.04    0.29   40.56   37.95    0.05    9.08    0.00   31.47    0.00
 2004 075   158     0     0    19.4   60.4   58.9    1.5    8.03    4.06    4.81    5.13    4.67    4.23    4.65    3.34    0.05    0.04    0.01    0.04    0.04    0.03    0.04    0.29   40.73   38.13    0.05    9.09    0.00   31.63    0.00
 2004 076   159     0     0    19.4   60.6   59.0    1.5    8.12    4.06    4.82    5.14    4.69    4.24    4.66    3.35    0.04    0.04    0.01    0.04    0.04    0.03    0.04    0.29   40.89   38.30    0.05    9.11    0.00   31.78    0.00
 2004 077   160     0     0    19.4   60.7   59.2    1.5    8.20    4.06    4.83    5.15    4.70    4.24    4.67    3.36    0.03    0.04    0.01    0.04    0.04    0.03    0.04    0.29   41.05   38.46    0.05    9.12    0.00   31.93    0.00
 2004 078   161     0     0    19.4   60.9   59.4    1.5    8.27    4.06    4.84    5.16    4.71    4.25    4.68    3.37    0.02    0.04    0.01    0.04    0.04    0.03    0.04    0.29   41.20   38.62    0.05    9.13    0.00   32.07    0.00
 2004 079   162     0     0    19.4   61.0   59.5    1.5    8.34    4.06    4.85    5.17    4.72    4.26    4.69    3.38    0.02    0.04    0.01    0.04    0.04    0.03    0.04    0.28   41.35   38.77    0.05    9.14    0.00   32.21    0.00
 2004 080   163     0     0    19.4   61.1   59.7    1.5    8.40    4.05    4.85    5.18    4.73    4.27    4.70    3.39    0.01    0.04    0.01    0.04    0.04    0.03    0.04    0.28   41.50   38.92    0.05    9.15    0.00   32.35    0.00
 2004 081   164     0     0    19.4   61.3   59.8    1.5    8.47    4.05    4.86    5.19    4.74    4.28    4.71    3.40    0.01    0.04    0.01    0.04    0.04    0.03    0.04    0.28   41.64   39.06    0.05    9.16    0.00   32.48    0.00
 2004 082   165     0     0    19.4   61.4   59.9    1.5    8.53    4.05    4.87    5.20    4.74    4.28    4.71    3.41    0.01    0.04    0.01    0.04    0.04    0.03    0.04    0.28   41.79   39.20    0.05    9.17    0.00   32.62    0.00
 2004 083   166     0     0    19.4   61.5   60.1    1.5    8.59    4.05    4.87    5.21    4.75    4.29    4.72    3.42    0.01    0.04    0.01    0.04    0.04    0.03    0.04    0.28   41.93   39.33    0.05    9.18    0.00   32.75    0.00
 2004 084   167     0     0    19.4   61.7   60.2    1.4    8.65    4.04    4.88    5.22    4.76    4.30    4.73    3.43    0.02    0.04    0.01    0.04    0.04    0.03    0.04    0.28   42.07   39.47    0.05    9.19    0.00   32.88    0.00
 2004 085   168     0     0    19.4   61.8   60.4    1.4    8.71    4.04    4.89    5.22    4.77    4.31    4.74    3.43    0.02    0.04    0.01    0.04    0.04    0.03    0.04    0.28   42.22   39.61    0.05    9.20    0.00   33.01    0.00
 2004 086   169     0     0    19.4   61.9   60.5    1.4    8.77    4.04    4.89    5.23    4.78    4.31    4.75    3.44    0.02    0.04    0.01    0.04    0.04    0.03    0.04    0.28   42.36   39.75    0.05    9.21    0.00   33.15    0.00
 2004 087   170     0     0    19.4   62.1   60.6    1.4    8.84    4.03    4.90    5.24    4.79    4.32    4.76    3.45    0.02    0.04    0.01    0.04    0.04    0.03    0.03    0.27   42.51   39.90    0.05    9.22    0.00   33.28    0.00
 2004 088   171     0     0    19.4   62.2   60.8    1.4    8.90    4.03    4.91    5.25    4.80    4.33    4.77    3.46    0.02    0.03    0.01    0.04    0.04    0.03    0.03    0.27   42.66   40.04    0.05    9.23    0.00   33.42    0.00
 2004 089   172     0     0    19.4   62.3   60.9    1.4    5.57    5.72    4.91    5.26    4.81    4.34    4.78    3.47    0.02    0.03    0.01    0.04    0.04    0.03    0.03    0.27   42.80   40.19    0.05    9.24    0.00   33.56    0.00
 2004 090   173     0     0    19.4   62.5   61.1    1.4    3.98    5.92    5.66    5.54    4.82    4.35    4.78    3.48    0.01    0.04    0.01    0.04    0.04    0.03    0.03    0.27   43.00   40.35    0.05    9.29    0.00   33.71    0.00
 2004 091   174     0     0    19.4   62.8   61.2    1.5    5.01    5.38    5.42    5.61    5.10    4.31    4.76    3.46    0.19    0.04    0.01    0.04    0.03    0.03    0.03    0.27   43.34   40.50    0.05    9.34    0.00   34.00    0.00
 2004 092   175     0     0    19.4   63.1   61.6    1.5    6.68    5.15    5.28    5.49    5.03    4.27    4.74    3.43    0.10    0.04    0.01    0.04    0.04    0.03    0.03    0.27   43.64   40.84    0.05    9.38    0.00   34.27    0.00
 2004 093   176     0     0    19.4   63.3   61.8    1.5    6.88    5.14    5.29    5.50    5.04    4.28    4.75    3.44    0.14    0.04    0.01    0.04    0.04    0.03    0.03    0.27   43.93   41.07    0.05    9.41    0.00   34.52    0.00
 2004 094   177     0     0    19.4   63.5   62.1    1.5    7.12    5.13    5.29    5.51    5.05    4.28    4.76    3.45    0.11    0.04    0.01    0.04    0.04    0.03    0.03    0.26   44.19   41.31    0.05    9.44    0.00   34.75    0.00
 2004 095   178     0     0    19.4   63.7   62.3    1.5    7.31    5.13    5.29    5.51    5.06    4.29    4.76    3.46    0.11    0.04    0.01    0.04    0.04    0.03    0.03    0.26   44.42   41.53    0.05    9.47    0.00   34.95    0.00
 2004 096   179     0     0    19.4   63.9   62.5    1.5    7.49    5.12    5.30    5.52    5.07    4.30    4.77    3.47    0.10    0.04    0.01    0.04    0.04    0.03    0.03    0.26   44.64   41.73    0.05    9.49    0.00   35.15    0.00
 2004 097   180     0     0    19.4   64.1   62.7    1.4    7.66    5.11    5.30    5.53    5.07    4.30    4.78    3.47    0.09    0.04    0.01    0.04    0.04    0.03    0.03    0.26   44.85   41.93    0.05    9.51    0.00   35.34    0.00
 2004 098   181     0     0    19.4   64.3   62.9    1.4    7.82    5.10    5.31    5.54    5.08    4.31    4.79    3.48    0.08    0.04    0.01    0.04    0.04    0.03    0.03    0.26   45.06   42.14    0.05    9.54    0.00   35.52    0.00
 2004 099   182     0     0    19.4   64.5   63.1    1.4    5.37    6.06    5.71    5.68    5.09    4.32    4.79    3.49    0.07    0.04    0.01    0.04    0.04    0.03    0.03    0.26   45.26   42.33    0.05    9.55    0.00   35.70    0.00
 2004 100   183     0     0    19.4   64.7   63.3    1.4    6.56    5.76    5.58    5.76    5.04    4.28    4.77    3.47    0.04    0.04    0.01    0.04    0.04    0.03    0.03    0.26   45.46   42.53    0.05    9.59    0.00   35.88    0.00
 2004 101   184     0     0    19.4   64.9   63.4    1.4    5.43    5.78    6.31    6.04    5.17    4.24    4.75    3.44    0.14    0.04    0.01    0.04    0.04    0.03    0.03    0.25   45.72   42.70    0.05    9.62    0.00   36.10    0.00
 2004 102   185     0     0    19.4   65.1   63.7    1.4    6.18    5.18    5.73    5.96    5.45    4.80    4.73    3.42    0.10    0.05    0.01    0.04    0.04    0.03    0.03    0.25   45.96   42.94    0.05    9.65    0.00   36.31    0.00
 2004 103   186     0     0    19.4   65.3   63.9    1.4    7.55    5.04    5.59    5.83    5.37    4.76    4.70    3.39    0.11    0.05    0.01    0.04    0.04    0.03    0.03    0.25   46.20   43.15    0.05    9.68    0.00   36.52    0.00
 2004 104   187     0     0    19.4   65.5   64.1    1.4    8.99    4.87    5.46    5.70    5.29    4.71    4.68    3.37    0.11    0.05    0.01    0.04    0.04    0.03    0.03    0.25   46.44   43.36    0.05    9.71    0.00   36.73    0.00
 2004 105   188     0     0    19.4   65.7   64.3    1.4    2.62    4.83    6.80    7.12    6.02    5.14    4.75    3.38    0.08    0.05    0.01    0.04    0.04    0.03    0.03    0.24   46.66   43.60    0.05    9.73    0.00   36.93    0.00
 2004 106   189     0     0    22.1   63.2   61.9    1.4    3.29    3.90    5.31    6.06    5.82    5.15    5.16    3.61    0.07    0.05    0.01    0.04    0.04    0.04    0.02    0.24   46.88   43.81    0.05    9.76    0.00   37.13    0.00
 2004 107   190     0     0    22.9   62.7   61.3    1.4    4.27    3.63    4.81    5.85    5.76    5.18    5.19    3.56    0.09    0.05    0.01    0.04    0.04    0.04    0.03    0.24   47.17   44.02    0.05    9.79    0.00   37.37    0.00
 2004 108   191     0     0    22.9   63.0   61.6    1.4    5.36    3.58    4.76    5.78    5.67    5.12    5.16    3.54    0.10    0.05    0.01    0.04    0.04    0.04    0.03    0.25   47.46   44.25    0.05    9.82    0.00   37.63    0.00
 2004 109   192     0     0    22.9   63.2   61.8    1.4    6.46    3.53    4.76    5.68    5.59    5.06    5.13    3.51    0.09    0.05    0.01    0.04    0.04    0.04    0.04    0.25   47.72   44.48    0.05    9.85    0.00   37.87    0.00
 2004 110   193     0     0    22.9   63.4   62.0    1.4    6.61    3.53    4.77    5.68    5.60    5.07    5.14    3.52    0.09    0.05    0.01    0.04    0.04    0.04    0.04    0.25   47.95   44.68    0.05    9.87    0.00   38.08    0.00
 2004 111   194     0     0    22.9   63.6   62.2    1.4    4.05    4.37    5.17    5.92    5.68    5.08    5.15    3.52    0.08    0.05    0.01    0.04    0.04    0.04    0.04    0.25   48.16   44.87    0.05    9.89    0.00   38.27    0.00
 2004 112   195     0     0    22.9   63.8   62.4    1.4    4.77    4.07    4.89    5.85    5.83    5.26    5.17    3.50    0.05    0.05    0.01    0.04    0.04    0.04    0.04    0.25   48.38   45.08    0.05    9.92    0.00   38.46    0.00
 2004 113   196     0     0    22.9   64.0   62.6    1.5    3.96    4.13    5.34    6.07    5.91    5.29    5.14    3.47    0.10    0.05    0.01    0.04    0.04    0.04    0.04    0.25   48.63   45.25    0.05    9.95    0.00   38.68    0.00
 2004 114   197     0     0    23.4   63.7   62.2    1.5    4.50    3.74    4.79    5.83    5.85    5.31    5.36    3.55    0.10    0.05    0.01    0.04    0.04    0.04    0.04    0.26   48.88   45.48    0.05    9.97    0.00   38.91    0.00
 2004 115   198     0     0    23.4   63.9   62.4    1.5    5.09    3.81    4.83    5.84    5.76    5.25    5.33    3.53    0.08    0.05    0.01    0.04    0.04    0.04    0.04    0.26   49.13   45.69    0.05   10.00    0.00   39.13    0.00
 2004 116   199     0     0    23.4   64.1   62.6    1.5    6.20    3.74    4.84    5.73    5.68    5.20    5.30    3.50    0.10    0.05    0.01    0.04    0.04    0.04    0.04    0.26   49.39   45.90    0.05   10.03    0.00   39.36    0.00
 2004 117   200     0     0    23.4   64.3   62.8    1.5    7.22    3.73    4.83    5.63    5.59    5.14    5.26    3.47    0.09    0.05    0.01    0.04    0.04    0.04    0.04    0.26   49.62   46.12    0.05   10.05    0.00   39.57    0.00
 2004 118   201     0     0    23.4   64.5   63.0    1.5    7.38    3.73    4.84    5.64    5.60    5.15    5.27    3.48    0.07    0.05    0.01    0.04    0.04    0.04    0.04    0.26   49.85   46.33    0.05   10.08    0.00   39.77    0.00
 2004 119   202     0     0    23.4   64.7   63.2    1.5    7.51    3.73    4.84    5.64    5.61    5.16    5.28    3.49    0.09    0.05    0.01    0.04    0.04    0.04    0.04    0.26   50.07   46.51    0.05   10.10    0.00   39.97    0.00
 2004 120   203     0     0    23.4   64.9   63.4    1.5    2.52    4.12    5.79    6.55    6.16    5.41    5.29    3.50    0.07    0.05    0.01    0.04    0.04    0.04    0.04    0.26   50.28   46.71    0.05   10.12    0.00   40.16    0.00
 2004 121   204     0     0    26.8   61.8   60.3    1.5    3.08    3.41    4.69    5.74    5.91    5.41    5.45    3.44    0.06    0.05    0.01    0.04    0.04    0.04    0.04    0.26   50.49   46.90    0.05   10.15    0.00   40.34    0.00
 2004 122   205     0     0    27.1   61.6   60.1    1.5    3.92    3.25    4.41    5.58    5.86    5.43    5.48    3.43    0.08    0.05    0.01    0.04    0.04    0.04    0.04    0.27   50.71   47.07    0.05   10.17    0.00   40.54    0.00
 2004 123   206     0     0    27.1   61.9   60.3    1.5    4.88    3.21    4.46    5.50    5.77    5.37    5.44    3.40    0.09    0.05    0.01    0.04    0.04    0.04    0.04    0.27   50.94   47.26    0.05   10.19    0.00   40.75    0.00
 2004 124   207     0     0    27.1   62.0   60.5    1.5    5.84    3.18    4.49    5.41    5.69    5.30    5.40    3.37    0.07    0.05    0.01    0.04    0.04    0.04    0.04    0.27   51.15   47.46    0.05   10.21    0.00   40.94    0.00
 2004 125   208     0     0    27.1   62.2   60.7    1.5    4.62    3.74    4.62    5.47    5.70    5.31    5.41    3.38    0.07    0.05    0.01    0.04    0.04    0.04    0.04    0.27   51.35   47.64    0.05   10.23    0.00   41.12    0.00
 2004 126   209     0     0    27.1   62.4   60.9    1.5    4.16    3.82    4.71    5.65    5.71    5.32    5.42    3.39    0.05    0.05    0.01    0.04    0.04    0.04    0.04    0.27   51.56   47.84    0.05   10.26    0.00   41.31    0.00
 2004 127   210     0     0    27.1   62.6   61.1    1.5    5.21    3.74    4.67    5.59    5.63    5.26    5.38    3.37    0.08    0.05    0.01    0.04    0.04    0.04    0.04    0.27   51.79   48.01    0.05   10.28    0.00   41.51    0.00
 2004 128   211     0     0    27.1   62.8   61.3    1.5    6.30    3.66    4.66    5.50    5.55    5.20    5.34    3.34    0.08    0.05    0.01    0.04    0.04    0.04    0.04    0.27   52.01   48.21    0.05   10.30    0.00   41.71    0.00
 2004 129   212     0     0    27.1   63.0   61.5    1.5    6.44    3.66    4.67    5.51    5.55    5.21    5.35    3.35    0.07    0.05    0.01    0.04    0.04    0.04    0.04    0.27   52.20   48.40    0.05   10.32    0.00   41.88    0.00
 2004 130   213     0     0    27.1   63.2   61.6    1.5    6.56    3.66    4.68    5.51    5.56    5.22    5.36    3.36    0.06    0.05    0.01    0.04    0.04    0.04    0.04    0.27   52.39   48.57    0.05   10.34    0.00   42.05    0.00
 2004 131   214     0     0    27.1   63.3   61.8    1.5    6.67    3.66    4.68    5.52    5.57    5.23    5.36    3.36    0.06    0.05    0.01    0.04    0.04    0.04    0.04    0.27   52.57   48.73    0.05   10.36    0.00   42.21    0.00
 2004 132   215     0     0    27.1   63.5   62.0    1.5    4.29    4.50    5.05    5.73    5.58    5.24    5.37    3.37    0.06    0.05    0.01    0.04    0.04    0.04    0.04    0.28   52.74   48.89    0.05   10.37    0.00   42.37    0.00
 2004 133   216     0     0    27.1   63.6   62.1    1.5    5.07    4.29    4.90    5.82    5.66    5.18    5.33    3.35    0.03    0.05    0.01    0.04    0.04    0.04    0.04    0.28   52.92   49.07    0.05   10.39    0.00   42.52    0.00
 2004 134   217     0     0    27.1   63.8   62.3    1.5    6.23    4.16    4.87    5.72    5.58    5.12    5.30    3.32    0.08    0.05    0.01    0.04    0.04    0.04    0.04    0.27   53.13   49.23    0.05   10.42    0.00   42.71    0.00
 2004 135   218     0     0    27.1   64.0   62.5    1.5    3.72    4.63    5.47    6.06    5.81    5.13    5.30    3.33    0.07    0.05    0.01    0.04    0.04    0.04    0.04    0.27   53.33   49.42    0.05   10.44    0.00   42.89    0.00
 2004 136   219     0     0    27.1   64.2   62.7    1.5    4.10    4.26    5.49    6.18    6.12    5.07    5.26    3.31    0.06    0.05    0.01    0.04    0.04    0.04    0.04    0.27   53.52   49.60    0.05   10.46    0.00   43.06    0.00
 2004 137   220     0     0    27.1   64.3   62.8    1.5    4.83    3.98    5.00    5.94    6.05    5.61    5.38    3.28    0.07    0.05    0.01    0.04    0.04    0.03    0.04    0.27   53.70   49.76    0.05   10.48    0.00   43.23    0.00
 2004 138   221     0     0    27.1   64.5   63.0    1.5    5.95    3.89    4.92    5.87    5.96    5.55    5.34    3.26    0.07    0.05    0.01    0.04    0.04    0.04    0.04    0.27   53.89   49.93    0.05   10.50    0.00   43.40    0.00
 2004 139   222     0     0    27.1   64.7   63.2    1.5    7.06    3.81    4.90    5.77    5.87    5.49    5.30    3.24    0.07    0.05    0.01    0.04    0.04    0.04    0.04    0.27   54.07   50.09    0.05   10.51    0.00   43.55    0.00
 2004 140   223     0     0    27.1   64.8   63.3    1.5    1.69    3.57    5.99    6.65    6.66    5.92    5.65    3.24    0.06    0.05    0.01    0.04    0.04    0.04    0.04    0.27   54.23   50.25    0.05   10.53    0.00   43.70    0.00
 2004 141   224     0     0    32.5   59.6   58.1    1.5    2.19    2.88    4.44    5.42    5.93    5.60    5.61    3.30    0.05    0.05    0.01    0.04    0.04    0.05    0.04    0.27   54.40   50.41    0.05   10.55    0.00   43.85    0.00
 2004 142   225     0     0    33.7   58.5   57.0    1.5    2.89    2.69    3.96    5.14    5.75    5.53    5.62    3.27    0.06    0.05    0.01    0.04    0.04    0.05    0.04    0.27   54.60   50.56    0.05   10.57    0.00   44.03    0.00
 2004 143   226     0     0    33.7   58.7   57.1    1.5    3.67    2.68    3.95    5.12    5.67    5.46    5.57    3.24    0.07    0.05    0.01    0.04    0.04    0.05    0.04    0.27   54.81   50.73    0.05   10.59    0.00   44.22    0.00
 2004 144   227     0     0    33.7   58.8   57.3    1.5    3.21    2.99    4.16    5.22    5.67    5.40    5.52    3.22    0.06    0.05    0.01    0.04    0.04    0.05    0.04    0.27   55.00   50.90    0.05   10.61    0.00   44.39    0.00
 2004 145   228     0     0    33.7   59.0   57.5    1.5    3.71    2.89    3.96    5.16    5.75    5.55    5.48    3.19    0.05    0.05    0.01    0.04    0.04    0.05    0.04    0.27   55.18   51.07    0.05   10.63    0.00   44.55    0.00
 2004 146   229     0     0    33.7   59.2   57.6    1.5    4.53    2.87    4.02    5.10    5.68    5.48    5.43    3.17    0.06    0.05    0.01    0.04    0.04    0.05    0.04    0.27   55.37   51.22    0.05   10.65    0.00   44.72    0.00
 2004 147   230     0     0    33.7   59.3   57.8    1.5    1.16    2.43    4.38    5.53    6.29    5.93    5.82    3.23    0.06    0.05    0.01    0.04    0.04    0.05    0.04    0.27   55.56   51.39    0.05   10.66    0.00   44.89    0.00
 2004 148   231     0     0    40.8   52.4   50.9    1.6    1.40    1.96    3.16    4.37    5.28    5.31    5.49    3.09    0.06    0.05    0.01    0.04    0.04    0.05    0.05    0.28   55.74   51.54    0.05   10.68    0.00   45.06    0.00
 2004 149   232     0     0    40.8   52.6   51.0    1.6    1.54    1.83    3.05    4.32    5.29    5.38    5.57    3.13    0.06    0.05    0.01    0.04    0.04    0.06    0.05    0.28   55.93   51.69    0.05   10.70    0.00   45.23    0.00
 2004 150   233     0     0    41.1   52.5   50.8    1.6    1.59    1.73    2.96    4.22    5.26    5.42    5.65    3.14    0.06    0.05    0.01    0.04    0.04    0.06    0.05    0.28   56.12   51.82    0.05   10.72    0.00   45.40    0.00
 2004 151   234     0     0    44.2   49.5   47.9    1.7    1.82    1.61    2.59    3.82    4.82    5.05    5.39    3.03    0.06    0.05    0.01    0.04    0.04    0.06    0.06    0.29   56.30   51.94    0.05   10.74    0.00   45.57    0.00
 2004 152   235     0     0    44.3   49.6   47.9    1.7    2.31    1.62    2.62    3.79    4.76    4.99    5.35    3.01    0.06    0.05    0.01    0.05    0.05    0.07    0.06    0.29   56.49   52.09    0.05   10.76    0.00   45.73    0.00
 2004 153   236     0     0    44.3   49.8   48.1    1.7    2.51    1.77    2.76    3.77    4.71    4.94    5.31    2.99    0.06    0.05    0.01    0.05    0.05    0.07    0.06    0.29   56.67   52.25    0.05   10.77    0.00   45.89    0.00
 2004 154   237     0     0    44.3   49.9   48.2    1.7    1.91    1.92    2.95    3.96    4.83    4.90    5.26    2.97    0.05    0.05    0.01    0.05    0.05    0.06    0.05    0.29   56.84   52.42    0.05   10.79    0.00   46.05    0.00
 2004 155   238     0     0    45.6   48.8   47.2    1.7    2.02    1.74    2.57    3.70    4.60    4.86    5.32    3.01    0.06    0.05    0.01    0.05    0.05    0.06    0.05    0.30   57.01   52.57    0.05   10.81    0.00   46.20    0.00
 2004 156   239     0     0    45.6   49.0   47.3    1.7    2.46    1.75    2.60    3.72    4.59    4.82    5.27    2.98    0.05    0.05    0.01    0.05    0.05    0.06    0.05    0.30   57.19   52.73    0.05   10.82    0.00   46.36    0.00
 2004 157   240     0     0    45.6   49.2   47.5    1.7    2.98    1.75    2.68    3.70    4.55    4.78    5.23    2.96    0.06    0.05    0.01    0.05    0.05    0.06    0.05    0.30   57.36   52.88    0.05   10.84    0.00   46.52    0.00
 2004 158   241     0     0    45.6   49.3   47.6    1.7    3.05    1.76    2.69    3.71    4.56    4.79    5.24    2.97    0.05    0.05    0.01    0.05    0.05    0.05    0.05    0.30   57.52   53.04    0.05   10.86    0.00   46.67    0.00
 2004 159   242     0     0    45.6   49.5   47.8    1.7    3.12    1.76    2.70    3.71    4.57    4.80    5.25    2.98    0.05    0.05    0.01    0.05    0.05    0.05    0.05    0.30   57.68   53.19    0.05   10.87    0.00   46.81    0.00
 2004 160   243     0     0    45.6   49.6   47.9    1.7    3.18    1.77    2.71    3.72    4.58    4.80    5.25    2.99    0.04    0.05    0.01    0.05    0.04    0.05    0.05    0.30   57.85   53.35    0.05   10.88    0.00   46.96    0.00
 2004 161   244     0     0    45.6   49.8   48.1    1.7    3.24    1.78    2.72    3.73    4.58    4.81    5.26    2.99    0.04    0.05    0.01    0.05    0.04    0.05    0.05    0.30   58.01   53.50    0.05   10.90    0.00   47.11    0.00
 2004 162   245     0     0    45.6   49.9   48.2    1.7    3.30    1.79    2.73    3.74    4.59    4.82    5.27    3.00    0.04    0.05    0.01    0.04    0.04    0.05    0.05    0.30   58.17   53.64    0.05   10.91    0.00   47.26    0.00
 2004 163   246     0     0    45.6   50.0   48.4    1.6    2.24    2.22    2.86    3.82    4.60    4.83    5.28    3.01    0.04    0.05    0.01    0.04    0.04    0.05    0.05    0.30   58.32   53.79    0.05   10.92    0.00   47.40    0.00
 2004 164   247     0     0    45.6   50.2   48.5    1.6    2.20    2.20    3.05    3.94    4.66    4.79    5.23    2.99    0.03    0.05    0.01    0.04    0.04    0.05    0.05    0.30   58.49   53.94    0.05   10.94    0.00   47.54    0.00
 2004 165   248     0     0    45.6   50.3   48.7    1.7    2.49    2.15    3.03    3.98    4.76    4.75    5.19    2.97    0.05    0.05    0.01    0.04    0.04    0.05    0.05    0.30   58.66   54.08    0.05   10.96    0.00   47.70    0.00
 2004 166   249     0     0    45.6   50.5   48.8    1.7    1.11    1.17    4.27    2.94    5.19    5.25    5.84    3.20    0.05    0.05    0.01    0.05    0.04    0.04    0.04    0.30   58.83   54.24    0.05   10.98    0.00   47.86    0.00
 2004 167   250     0     0    48.7   47.5   45.8    1.7    1.19    1.18    2.91    2.96    4.62    4.83    5.59    3.15    0.05    0.05    0.01    0.05    0.04    0.05    0.05    0.31   59.00   54.36    0.05   10.99    0.00   48.01    0.00
 2004 168   251     0     0    55.2   41.2   39.5    1.7    1.33    1.11    2.17    2.58    3.72    4.00    4.82    2.84    0.05    0.05    0.01    0.05    0.04    0.05    0.05    0.31   59.16   54.46    0.06   11.01    0.00   48.15    0.00
 2004 169   252     0     0    55.5   41.0   39.2    1.8    1.37    1.17    2.02    2.55    3.58    4.03    4.82    2.83    0.05    0.05    0.01    0.05    0.04    0.06    0.06    0.32   59.33   54.57    0.06   11.03    0.00   48.31    0.00
 2004 170   253     0     0    57.2   39.4   37.6    1.8    1.57    1.17    1.84    2.45    3.36    3.79    4.55    2.74    0.05    0.05    0.01    0.05    0.05    0.06    0.06    0.33   59.50   54.68    0.06   11.04    0.00   48.46    0.00
 2004 171   254     0     0    57.3   39.5   37.7    1.8    1.94    1.18    1.86    2.46    3.33    3.76    4.52    2.72    0.05    0.05    0.01    0.05    0.05    0.07    0.06    0.33   59.67   54.81    0.06   11.06    0.00   48.62    0.00
 2004 172   255     0     0    57.3   39.7   37.8    1.8    1.53    1.40    2.00    2.54    3.37    3.74    4.49    2.70    0.05    0.05    0.01    0.05    0.05    0.07    0.06    0.33   59.83   54.96    0.06   11.07    0.00   48.76    0.00
 2004 173   256     0     0    57.3   39.8   38.0    1.8    1.72    1.39    2.01    2.60    3.38    3.77    4.46    2.68    0.04    0.05    0.01    0.05    0.05    0.06    0.06    0.33   60.00   55.13    0.06   11.09    0.00   48.91    0.00
 2004 174   257     0     0    57.3   40.0   38.2    1.8    2.09    1.39    1.97    2.59    3.38    3.79    4.43    2.66    0.04    0.05    0.01    0.05    0.05    0.06    0.06    0.33   60.17   55.28    0.06   11.10    0.00   49.07    0.00
 2004 175   258     0     0    57.3   40.1   38.3    1.8    2.50    1.39    2.01    2.59    3.36    3.77    4.40    2.65    0.05    0.05    0.01    0.05    0.05    0.06    0.05    0.33   60.34   55.45    0.06   11.12    0.00   49.22    0.00
 2004 176   259     0     0    57.3   40.3   38.5    1.8    2.56    1.40    2.02    2.60    3.37    3.78    4.41    2.66    0.04    0.05    0.01    0.05    0.05    0.05    0.05    0.33   60.51   55.62    0.06   11.13    0.00   49.37    0.00
 2004 177   260     0     0    57.3   40.4   38.6    1.8    2.62    1.41    2.03    2.61    3.38    3.79    4.41    2.66    0.04    0.05    0.01    0.05    0.05    0.05    0.05    0.33   60.67   55.77    0.06   11.15    0.00   49.52    0.00
 2004 178   261     0     0    57.3   40.6   38.8    1.8    1.52    1.73    2.20    2.72    3.46    3.80    4.42    2.67    0.04    0.05    0.01    0.05    0.05    0.05    0.05    0.33   60.82   55.92    0.06   11.16    0.00   49.66    0.00
 2004 179   262     0     0    57.3   40.7   38.9    1.8    1.35    1.54    2.29    2.87    3.54    3.93    4.44    2.66    0.03    0.05    0.01    0.05    0.05    0.05    0.05    0.33   60.97   56.07    0.06   11.17    0.00   49.80    0.00
 2004 180   263     0     0    58.9   39.1   37.3    1.8    1.49    1.33    1.92    2.60    3.27    3.68    4.37    2.70    0.04    0.05    0.01    0.05    0.05    0.05    0.05    0.33   61.13   56.22    0.06   11.19    0.00   49.94    0.13
 2004 181   264     0     0    58.9   39.0   37.2    1.8    1.73    1.27    1.82    2.57    3.27    3.69    4.34    2.69    0.04    0.05    0.01    0.05    0.05    0.05    0.05    0.33   61.31   56.37    0.06   11.21    0.00   50.10    0.41
 2004 182   265     0     0    58.9   38.8   37.0    1.8    0.73    0.92    2.11    2.51    3.46    3.86    4.48    2.74    0.05    0.05    0.01    0.05    0.05    0.05    0.05    0.33   61.48   56.52    0.06   11.22    0.00   50.26    0.77
 2004 183   266     0     0    64.6   33.0   31.1    1.8    0.76    0.75    1.39    1.98    2.77    3.21    3.87    2.44    0.04    0.05    0.01    0.05    0.05    0.06    0.05    0.33   61.64   56.63    0.06   11.24    0.00   50.40    1.06
 2004 184   267     0     0    65.7   31.6   29.7    1.8    0.85    0.65    1.14    1.80    2.63    3.08    3.73    2.39    0.04    0.05    0.01    0.05    0.05    0.06    0.06    0.33   61.81   56.77    0.06   11.25    0.00   50.56    1.49
 2004 185   268     0     0    65.7   31.3   29.5    1.8    0.44    0.57    1.05    1.78    2.63    3.14    3.78    2.42    0.04    0.05    0.01    0.05    0.05    0.06    0.06    0.33   61.98   56.92    0.06   11.27    0.00   50.71    1.92
 2004 186   269     0     0    66.1   30.6   28.7    1.9    0.41    0.47    0.86    1.58    2.50    3.12    3.84    2.43    0.04    0.05    0.01    0.05    0.05    0.06    0.06    0.34   62.13   57.02    0.06   11.28    0.00   50.85    2.31
 2004 187   270     0     0    69.1   27.4   25.5    1.9    0.24    0.26    0.80    1.11    2.21    2.76    3.52    2.29    0.04    0.05    0.01    0.05    0.05    0.07    0.07    0.35   62.29   57.13    0.06   11.29    0.00   50.99    2.73
 2004 188   271     0     0    72.0   24.1   22.2    1.9    0.23    0.24    0.51    0.92    1.78    2.30    3.14    2.11    0.04    0.05    0.01    0.05    0.05    0.07    0.07    0.35   62.43   57.22    0.07   11.31    0.00   51.12    3.19
 2004 189   272     0     0    74.1   21.5   19.6    2.0    0.28    0.22    0.39    0.72    1.39    1.96    2.83    1.96    0.04    0.05    0.01    0.05    0.05    0.08    0.07    0.36   62.58   57.32    0.07   11.32    0.00   51.26    3.82
 2004 190   273     0     0    75.4   19.5   17.4    2.0    0.28    0.22    0.29    0.56    1.05    1.67    2.59    1.85    0.04    0.05    0.01    0.05    0.05    0.08    0.08    0.36   62.73   57.42    0.12   11.33    0.00   51.39    4.62
 2004 191   274     0     0    76.5   18.1   16.1    2.0    0.22    0.21    0.30    0.50    0.91    1.47    2.39    1.76    0.04    0.05    0.01    0.05    0.05    0.08    0.08    0.37   62.89   57.53    0.16   11.35    0.00   51.54    4.97
 2004 192   275     0     0    77.5   16.7   14.6    2.1    0.21    0.19    0.29    0.43    0.74    1.24    2.19    1.67    0.04    0.05    0.01    0.05    0.05    0.09    0.08    0.37   63.04   57.64    0.19   11.36    0.00   51.68    5.53
 2004 193   276     0     0    78.5   15.1   13.0    2.1    0.23    0.18    0.25    0.34    0.57    0.99    1.93    1.57    0.04    0.05    0.01    0.05    0.05    0.09    0.09    0.38   63.19   57.75    0.23   11.38    0.00   51.82    6.24
 2004 194   277     0     0    80.6   12.5   10.4    2.1    0.27    0.17    0.22    0.27    0.40    0.71    1.44    1.31    0.04    0.05    0.01    0.05    0.05    0.09    0.09    0.39   63.34   57.85    0.26   11.39    0.00   51.95    6.84
 2004 195   278     0     0    80.8   12.0    9.8    2.2    0.14    0.15    0.27    0.27    0.36    0.62    1.33    1.29    0.04    0.05    0.01    0.05    0.05    0.09    0.09    0.39   63.50   57.96    0.27   11.40    0.00   52.10    7.26
 2004 196   279     0     0    83.0    9.6    7.4    2.2    0.18    0.14    0.19    0.22    0.27    0.43    0.90    0.99    0.04    0.05    0.01    0.05    0.05    0.10    0.10    0.40   63.65   58.07    0.28   11.41    0.00   52.24    7.66
 2004 197   280     0     0    83.4    9.0    6.8    2.2    0.23    0.14    0.18    0.22    0.25    0.37    0.75    0.92    0.04    0.05    0.01    0.05    0.05    0.10    0.10    0.40   63.81   58.17    0.29   11.43    0.00   52.38    7.89
 2004 198   281     0     0    83.4    9.0    6.7    2.2    0.29    0.15    0.19    0.23    0.26    0.35    0.71    0.91    0.04    0.05    0.01    0.05    0.05    0.09    0.09    0.41   63.96   58.31    0.29   11.44    0.00   52.52    8.06
 2004 199   282     0     0    83.4    8.9    6.7    2.2    0.16    0.17    0.23    0.26    0.27    0.33    0.67    0.91    0.04    0.05    0.01    0.05    0.05    0.09    0.08    0.41   64.11   58.48    0.29   11.45    0.00   52.66    8.26
 2004 200   283     0     0    84.1    8.2    6.0    2.2    0.18    0.16    0.20    0.24    0.25    0.30    0.56    0.81    0.03    0.05    0.01    0.05    0.05    0.08    0.08    0.41   64.26   58.64    0.29   11.46    0.00   52.79    8.45
 2004 201   284     0     0    84.1    8.2    6.0    2.2    0.23    0.16    0.20    0.25    0.26    0.29    0.53    0.81    0.03    0.05    0.01    0.05    0.05    0.08    0.07    0.41   64.41   58.79    0.29   11.48    0.00   52.93    8.57
 2004 202   285     0     0    84.1    8.2    6.0    2.2    0.31    0.17    0.22    0.25    0.26    0.28    0.52    0.81    0.03    0.05    0.01    0.05    0.05    0.07    0.07    0.41   64.56   58.95    0.29   11.49    0.00   53.07    8.69
 2004 203   286     0     0    84.1    8.2    6.0    2.1    0.12    0.19    0.26    0.29    0.28    0.27    0.49    0.82    0.03    0.05    0.01    0.05    0.05    0.07    0.07    0.40   64.71   59.11    0.29   11.50    0.00   53.21    8.85
 2004 204   287     0     0    84.7    7.5    5.4    2.1    0.15    0.17    0.21    0.25    0.25    0.26    0.43    0.73    0.03    0.05    0.01    0.05    0.05    0.06    0.06    0.40   64.86   59.27    0.29   11.51    0.00   53.35    9.05
 2004 205   288     0     0    84.7    7.6    5.5    2.1    0.21    0.17    0.22    0.26    0.26    0.26    0.42    0.73    0.03    0.05    0.01    0.05    0.05    0.06    0.06    0.40   65.03   59.42    0.29   11.53    0.00   53.50    9.11
 2004 206   289     0     0    84.7    7.7    5.6    2.1    0.29    0.18    0.23    0.26    0.26    0.26    0.41    0.74    0.04    0.05    0.01    0.05    0.05    0.06    0.06    0.40   65.19   59.58    0.29   11.54    0.00   53.65    9.20
 2004 207   290     0     0    84.7    7.7    5.6    2.1    0.28    0.19    0.24    0.26    0.26    0.26    0.40    0.75    0.04    0.05    0.01    0.05    0.05    0.06    0.06    0.40   65.33   59.73    0.29   11.55    0.00   53.78    9.30
 2004 208   291     0     0    84.7    7.7    5.6    2.1    0.28    0.20    0.25    0.26    0.26    0.26    0.38    0.75    0.03    0.05    0.01    0.05    0.04    0.06    0.06    0.40   65.47   59.87    0.29   11.56    0.00   53.90    9.41
 2004 209   292     0     0    84.7    7.7    5.7    2.1    0.14    0.24    0.29    0.28    0.26    0.26    0.37    0.76    0.03    0.05    0.01    0.04    0.04    0.06    0.06    0.40   65.60   60.01    0.29   11.57    0.00   54.02    9.50
 2004 210   293     0     0    84.7    7.7    5.7    2.0    0.18    0.22    0.27    0.27    0.26    0.26    0.37    0.77    0.02    0.05    0.01    0.04    0.04    0.05    0.05    0.40   65.74   60.15    0.29   11.59    0.00   54.15    9.64
 2004 211   294     0     0    84.7    7.7    5.7    2.0    0.23    0.21    0.24    0.26    0.28    0.26    0.37    0.77    0.03    0.05    0.01    0.05    0.04    0.05    0.05    0.39   65.88   60.28    0.29   11.60    0.00   54.28    9.76
 2004 212   295     0     0    84.7    7.8    5.7    2.0    0.27    0.23    0.25    0.26    0.26    0.26    0.37    0.77    0.03    0.05    0.01    0.05    0.04    0.05    0.05    0.39   66.03   60.43    0.29   11.61    0.00   54.42    9.86
 2004 213   296     0     0    84.7    7.8    5.8    2.0    0.26    0.24    0.27    0.27    0.26    0.26    0.37    0.78    0.03    0.05    0.01    0.05    0.04    0.05    0.05    0.39   66.17   60.57    0.29   11.63    0.00   54.55    9.94
 2004 214   297     0     0    84.7    7.8    5.8    2.0    0.31    0.24    0.25    0.26    0.26    0.26    0.37    0.78    0.04    0.05    0.01    0.05    0.04    0.05    0.05    0.39   66.32   60.71    0.29   11.64    0.00   54.68   10.05
 2004 215   298     0     0    84.7    7.8    5.8    2.0    0.20    0.23    0.30    0.29    0.28    0.26    0.37    0.78    0.03    0.05    0.01    0.05    0.04    0.05    0.05    0.38   66.45   60.85    0.29   11.65    0.00   54.80   10.18
 2004 216   299     0     0    84.7    7.8    5.8    2.0    0.23    0.21    0.26    0.28    0.27    0.28    0.37    0.79    0.03    0.05    0.01    0.05    0.04    0.04    0.04    0.38   66.59   60.99    0.29   11.67    0.00   54.92   10.34
 2004 217   300     0     0    84.7    7.8    5.8    2.0    0.15    0.14    0.35    0.23    0.30    0.29    0.41    0.80    0.03    0.05    0.01    0.05    0.04    0.04    0.04    0.38   66.73   61.14    0.29   11.68    0.00   55.05   10.48
 2004 218   301     0     0    85.3    7.1    5.2    2.0    0.14    0.13    0.21    0.23    0.27    0.26    0.37    0.71    0.03    0.05    0.01    0.05    0.05    0.05    0.05    0.38   66.87   61.26    0.29   11.69    0.00   55.18   10.67
 2004 219   302     0     0    85.9    6.6    4.6    2.0    0.17    0.13    0.19    0.22    0.25    0.24    0.34    0.61    0.03    0.05    0.01    0.05    0.05    0.06    0.05    0.38   67.02   61.35    0.29   11.71    0.00   55.31   10.74
 2004 220   303     0     0    86.3    6.4    4.3    2.0    0.20    0.13    0.18    0.21    0.24    0.23    0.32    0.55    0.03    0.05    0.01    0.05    0.05    0.06    0.06    0.39   67.16   61.44    0.29   11.72    0.00   55.44   10.77
 2004 221   304     0     0    86.7    6.1    4.0    2.1    0.12    0.12    0.24    0.21    0.26    0.24    0.30    0.48    0.03    0.05    0.01    0.05    0.05    0.06    0.06    0.39   67.31   61.53    0.29   11.73    0.00   55.57   10.79
 2004 222   305     0     0    87.5    5.3    3.2    2.1    0.13    0.11    0.17    0.19    0.22    0.20    0.25    0.35    0.04    0.05    0.01    0.05    0.05    0.07    0.07    0.40   67.44   61.61    0.29   11.74    0.00   55.69   10.82
 2004 223   306     0     0    87.8    5.1    3.0    2.1    0.19    0.11    0.15    0.19    0.21    0.20    0.24    0.30    0.03    0.05    0.01    0.05    0.05    0.07    0.07    0.40   67.58   61.71    0.30   11.76    0.00   55.82   10.82
 2004 224   307     0     0    87.8    5.2    3.0    2.2    0.17    0.13    0.17    0.20    0.22    0.21    0.25    0.29    0.03    0.05    0.01    0.05    0.05    0.08    0.08    0.41   67.74   61.82    0.31   11.77    0.00   55.97   10.82
 2004 225   308     0     0    88.0    5.2    3.0    2.2    0.19    0.14    0.17    0.20    0.23    0.22    0.25    0.28    0.03    0.05    0.01    0.05    0.05    0.08    0.08    0.41   67.90   61.93    0.31   11.79    0.00   56.11   10.82
 2004 226   309     0     0    88.2    5.1    2.9    2.2    0.09    0.10    0.29    0.11    0.27    0.25    0.28    0.26    0.03    0.05    0.01    0.05    0.05    0.08    0.07    0.42   68.05   62.05    0.31   11.80    0.00   56.25   10.83
 2004 227   310     0     0    88.7    4.7    2.4    2.3    0.12    0.10    0.16    0.13    0.19    0.19    0.24    0.21    0.04    0.05    0.01    0.05    0.05    0.08    0.08    0.43   68.19   62.15    0.31   11.81    0.00   56.39   10.90
 2004 228   311     0     0    89.0    4.6    2.3    2.3    0.08    0.09    0.16    0.14    0.20    0.20    0.23    0.18    0.03    0.05    0.01    0.05    0.05    0.08    0.08    0.43   68.32   62.24    0.32   11.82    0.00   56.50   10.90
 2004 229   312     0     0    89.3    4.3    2.0    2.3    0.11    0.08    0.12    0.13    0.17    0.17    0.20    0.16    0.04    0.05    0.01    0.05    0.05    0.09    0.09    0.43   68.45   62.34    0.32   11.82    0.00   56.63   10.90
 2004 230   313     0     0    89.4    4.3    2.0    2.4    0.16    0.09    0.11    0.13    0.17    0.17    0.20    0.14    0.03    0.05    0.01    0.05    0.05    0.09    0.09    0.44   68.60   62.44    0.32   11.84    0.00   56.76   10.90
 2004 231   314     0     0    89.4    4.5    2.1    2.4    0.21    0.10    0.12    0.14    0.17    0.18    0.22    0.14    0.03    0.05    0.01    0.05    0.05    0.08    0.08    0.44   68.75   62.58    0.33   11.85    0.00   56.90   10.90
 2004 232   315     0     0    89.4    4.6    2.2    2.4    0.21    0.13    0.14    0.15    0.18    0.20    0.23    0.14    0.03    0.05    0.01    0.05    0.05    0.08    0.08    0.45   68.90   62.71    0.33   11.86    0.00   57.03   10.90
 2004 233   316     0     0    89.4    4.7    2.4    2.4    0.26    0.14    0.15    0.16    0.19    0.21    0.24    0.15    0.02    0.05    0.01    0.05    0.05    0.07    0.07    0.46   69.05   62.84    0.33   11.88    0.00   57.17   10.90
 2004 234   317     0     0    89.4    4.9    2.5    2.4    0.30    0.15    0.16    0.17    0.20    0.22    0.25    0.15    0.03    0.05    0.01    0.05    0.05    0.07    0.07    0.46   69.19   62.97    0.33   11.89    0.00   57.30   10.91
 2004 235   318     0     0    89.5    4.9    2.5    2.3    0.08    0.12    0.29    0.09    0.24    0.26    0.29    0.17    0.03    0.05    0.01    0.04    0.04    0.06    0.06    0.46   69.32   63.12    0.33   11.90    0.00   57.42   10.95
 2004 236   319     0     0    89.7    4.7    2.3    2.4    0.10    0.11    0.19    0.12    0.21    0.22    0.26    0.16    0.03    0.05    0.01    0.05    0.05    0.07    0.07    0.46   69.45   63.20    0.33   11.90    0.00   57.55   11.01
 2004 237   320     0     0    90.1    4.5    2.1    2.4    0.13    0.11    0.15    0.12    0.17    0.18    0.22    0.14    0.03    0.05    0.01    0.05    0.05    0.07    0.07    0.47   69.58   63.29    0.33   11.91    0.00   57.67   11.02
 2004 238   321     0     0    90.1    4.6    2.1    2.5    0.12    0.11    0.16    0.14    0.18    0.19    0.23    0.14    0.03    0.05    0.01    0.05    0.05    0.08    0.08    0.47   69.72   63.38    0.33   11.93    0.00   57.80   11.02
 2004 239   322     0     0    90.1    4.7    2.2    2.5    0.14    0.11    0.15    0.16    0.18    0.19    0.23    0.14    0.03    0.05    0.01    0.05    0.05    0.08    0.08    0.48   69.86   63.48    0.33   11.94    0.00   57.93   11.02
 2004 240   323     0     0    90.3    4.7    2.1    2.5    0.18    0.12    0.14    0.15    0.18    0.18    0.22    0.14    0.03    0.05    0.01    0.05    0.05    0.08    0.08    0.48   70.00   63.57    0.33   11.95    0.00   58.05   11.02
 2004 241   324     0     0    90.3    4.8    2.2    2.6    0.21    0.13    0.15    0.16    0.19    0.19    0.22    0.14    0.03    0.05    0.01    0.05    0.05    0.09    0.09    0.49   70.15   63.67    0.33   11.96    0.00   58.19   11.02
 2004 242   325     0     0    90.3    4.9    2.4    2.6    0.21    0.15    0.17    0.18    0.20    0.20    0.23    0.14    0.03    0.05    0.01    0.05    0.05    0.08    0.08    0.49   70.31   63.81    0.33   11.98    0.00   58.33   11.02
[...]
 2004 213   296   120     2   119.5   30.8   26.5    4.3    0.49    2.38    3.19    3.63    1.85    1.61    1.42    1.64    0.09    0.49    0.06    0.43    0.19    0.12    0.10    0.51  135.30  188.89    0.91   42.16    0.00   93.14  109.66
 2004 214   297   120     2   119.5   26.3   22.3    4.0    0.34    1.53    2.00    3.14    1.56    1.36    1.22    1.65    0.09    0.41    0.05    0.37    0.16    0.11    0.09    0.50  135.49  189.45    0.91   42.20    0.00   93.29  114.44
 2004 215   298   120     2   119.5   23.7   19.9    3.7    0.25    0.97    1.86    2.88    1.32    1.16    1.05    1.66    0.08    0.35    0.04    0.32    0.14    0.10    0.08    0.50  135.67  189.93    0.91   42.24    0.00   93.43  117.26
 2004 216   299   120     2   119.5   20.8   17.3    3.5    0.26    0.52    0.94    2.54    1.13    0.98    0.90    1.67    0.08    0.30    0.04    0.28    0.12    0.09    0.08    0.49  135.87  190.37    0.91   42.28    0.00   93.59  120.38
 2004 217   300   120     2   119.5   18.4   15.1    3.3    0.15    0.23    0.46    1.54    1.43    0.98    0.79    1.68    0.07    0.25    0.03    0.25    0.11    0.08    0.07    0.49  136.08  190.79    0.91   42.33    0.00   93.75  122.92
 2004 218   301   120     2   119.8   16.7   13.4    3.3    0.16    0.24    0.26    0.97    1.10    0.90    0.80    1.66    0.08    0.21    0.03    0.26    0.14    0.09    0.07    0.49  136.30  191.13    0.91   42.37    0.00   93.93  124.75
 2004 219   302   120     2   120.7   14.7   11.5    3.2    0.20    0.25    0.27    0.68    0.81    0.74    0.70    1.50    0.07    0.18    0.02    0.22    0.12    0.10    0.07    0.49  136.51  191.43    0.91   42.42    0.00   94.10  126.02
 2004 220   303   120     2   121.5   13.1   10.0    3.1    0.23    0.27    0.26    0.51    0.60    0.60    0.60    1.35    0.07    0.16    0.02    0.19    0.11    0.10    0.08    0.50  136.72  191.67    0.91   42.46    0.00   94.26  127.02
 2004 221   304   120     2   122.5   11.4    8.4    3.1    0.13    0.20    0.35    0.39    0.49    0.49    0.51    1.16    0.07    0.14    0.02    0.16    0.10    0.10    0.08    0.50  136.94  191.89    0.91   42.51    0.00   94.43  127.81
 2004 222   305   120     2   124.5    8.9    5.9    3.0    0.15    0.19    0.20    0.26    0.31    0.33    0.38    0.82    0.09    0.13    0.02    0.15    0.09    0.10    0.08    0.51  137.15  192.08    0.92   42.55    0.00   94.59  128.51
 2004 223   306   120     2   125.1    8.2    5.2    3.0    0.22    0.20    0.20    0.27    0.26    0.27    0.31    0.69    0.06    0.11    0.02    0.13    0.09    0.10    0.09    0.51  137.36  192.29    0.95   42.61    0.00   94.75  128.81
 2004 224   307   120     2   125.2    8.1    5.1    3.0    0.20    0.23    0.23    0.29    0.27    0.26    0.26    0.66    0.07    0.11    0.02    0.11    0.08    0.11    0.09    0.52  137.60  192.48    0.95   42.66    0.00   94.93  128.98
 2004 225   308   120     2   125.5    7.8    4.9    3.0    0.23    0.23    0.23    0.27    0.27    0.26    0.26    0.61    0.08    0.10    0.02    0.10    0.08    0.11    0.09    0.52  137.84  192.67    0.96   42.71    0.00   95.12  129.10
 2004 226   309   120     2   126.1    7.3    4.3    3.0    0.11    0.12    0.45    0.13    0.33    0.29    0.28    0.51    0.07    0.09    0.02    0.09    0.07    0.11    0.09    0.52  138.06  192.86    0.96   42.77    0.00   95.29  129.19
 2004 227   310   120     2   127.0    6.2    3.2    3.0    0.15    0.12    0.18    0.15    0.21    0.20    0.24    0.37    0.07    0.09    0.01    0.09    0.07    0.11    0.10    0.53  138.27  193.02    0.97   42.82    0.00   95.46  129.59
 2004 228   311   120     2   127.4    5.9    3.0    3.0    0.10    0.11    0.18    0.18    0.23    0.21    0.23    0.30    0.07    0.08    0.02    0.08    0.07    0.11    0.10    0.53  138.47  193.16    0.99   42.87    0.00   95.61  129.59
 2004 229   312   120     2   127.9    5.5    2.5    3.0    0.13    0.10    0.14    0.17    0.20    0.19    0.21    0.24    0.07    0.08    0.02    0.08    0.07    0.11    0.10    0.54  138.68  193.31    0.99   42.91    0.00   95.77  129.59
 2004 230   313   120     2   128.1    5.5    2.5    3.0    0.19    0.12    0.14    0.18    0.21    0.19    0.21    0.21    0.06    0.08    0.02    0.08    0.07    0.11    0.10    0.54  138.89  193.47    1.00   42.97    0.00   95.93  129.59
 2004 231   314   120     2   128.1    5.6    2.7    3.0    0.24    0.13    0.16    0.19    0.22    0.20    0.22    0.21    0.07    0.08    0.02    0.07    0.07    0.11    0.10    0.55  139.13  193.63    1.00   43.02    0.00   96.11  129.59
 2004 232   315   120     2   128.1    5.8    2.8    3.0    0.24    0.17    0.19    0.21    0.23    0.22    0.24    0.21    0.07    0.07    0.02    0.07    0.06    0.10    0.10    0.55  139.35  193.83    1.00   43.07    0.00   96.28  129.59
 2004 233   316   120     2   128.1    6.0    3.0    2.9    0.29    0.20    0.20    0.22    0.25    0.24    0.25    0.21    0.07    0.07    0.01    0.06    0.06    0.09    0.09    0.56  139.56  194.02    1.00   43.11    0.00   96.45  129.59
 2004 234   317   120     2   128.1    6.1    3.2    2.9    0.31    0.21    0.21    0.23    0.26    0.26    0.27    0.22    0.07    0.07    0.01    0.06    0.06    0.09    0.08    0.56  139.77  194.20    1.00   43.16    0.00   96.61  129.63
 2004 235   318   120     2   128.3    6.0    3.1    2.9    0.10    0.12    0.43    0.11    0.33    0.32    0.30    0.22    0.07    0.07    0.01    0.05    0.06    0.08    0.08    0.57  139.96  194.37    1.01   43.20    0.00   96.76  129.71
 2004 236   319   120     2   128.5    5.5    2.6    2.9    0.13    0.12    0.21    0.14    0.23    0.24    0.25    0.20    0.07    0.06    0.01    0.05    0.06    0.08    0.08    0.57  140.16  194.49    1.01   43.24    0.00   96.92  130.13
 2004 237   320   120     2   128.9    5.3    2.3    3.0    0.17    0.11    0.17    0.14    0.19    0.20    0.23    0.17    0.06    0.07    0.01    0.06    0.06    0.09    0.08    0.57  140.36  194.62    1.01   43.29    0.00   97.07  130.13
 2004 238   321   120     2   128.9    5.4    2.4    3.0    0.13    0.13    0.18    0.17    0.20    0.21    0.24    0.17    0.06    0.07    0.02    0.06    0.06    0.09    0.09    0.58  140.57  194.74    1.01   43.34    0.00   97.23  130.13
 2004 239   322   120     2   129.0    5.5    2.5    3.0    0.15    0.13    0.18    0.18    0.21    0.22    0.24    0.17    0.07    0.07    0.02    0.06    0.06    0.09    0.09    0.58  140.78  194.87    1.01   43.38    0.00   97.40  130.13
 2004 240   323   120     2   129.1    5.5    2.4    3.1    0.19    0.14    0.17    0.19    0.21    0.21    0.23    0.16    0.06    0.07    0.02    0.06    0.06    0.09    0.09    0.59  140.99  195.01    1.02   43.43    0.00   97.56  130.13
 2004 241   324   120     2   129.1    5.7    2.6    3.1    0.20    0.16    0.19    0.20    0.22    0.22    0.24    0.16    0.06    0.07    0.02    0.06    0.06    0.10    0.09    0.59  141.21  195.15    1.02   43.48    0.00   97.72  130.13
 2004 242   325   120     2   129.1    5.8    2.7    3.1    0.21    0.18    0.22    0.22    0.24    0.22    0.26    0.16    0.06    0.07    0.02    0.06    0.06    0.10    0.09    0.60  141.43  195.31    1.02   43.53    0.00   97.90  130.13
 2004 243   326   120     2   129.1    6.0    2.9    3.1    0.25    0.20    0.23    0.24    0.25    0.24    0.27    0.17    0.06    0.07    0.02    0.06    0.06    0.09    0.08    0.60  141.65  195.50    1.02   43.58    0.00   98.08  130.14
 2004 244   327   120     2   129.1    6.1    3.1    3.1    0.12    0.17    0.30    0.30    0.31    0.27    0.26    0.17    0.06    0.07    0.01    0.06    0.05    0.08    0.07    0.60  141.86  195.68    1.02   43.62    0.00   98.24  130.16
 2004 245   328   120     2   129.4    5.8    2.7    3.1    0.16    0.15    0.20    0.23    0.24    0.24    0.26    0.17    0.06    0.07    0.01    0.06    0.06    0.08    0.07    0.61  142.09  195.84    1.02   43.67    0.00   98.42  130.42
 2004 246   329   120     2   129.5    5.9    2.8    3.1    0.10    0.12    0.23    0.23    0.29    0.28    0.28    0.17    0.05    0.07    0.02    0.06    0.06    0.08    0.07    0.61  142.32  196.02    1.02   43.73    0.00   98.59  130.44
 2004 247   330   120     2   129.7    5.7    2.6    3.1    0.10    0.11    0.18    0.23    0.26    0.25    0.25    0.17    0.07    0.07    0.01    0.06    0.06    0.08    0.07    0.62  142.54  196.14    1.02   43.78    0.00   98.76  130.60
 2004 248   331   120     2   129.8    5.7    2.5    3.1    0.14    0.11    0.17    0.22    0.25    0.24    0.25    0.16    0.05    0.06    0.01    0.06    0.06    0.08    0.07    0.62  142.74  196.28    1.03   43.83    0.00   98.91  130.62
 2004 249   332   120     2   130.1    5.6    2.4    3.2    0.17    0.11    0.15    0.20    0.23    0.22    0.24    0.15    0.05    0.07    0.01    0.06    0.06    0.09    0.08    0.62  142.95  196.40    1.03   43.89    0.00   99.06  130.62
 2004 250   333   120     2   130.1    5.7    2.5    3.2    0.18    0.14    0.16    0.21    0.24    0.23    0.24    0.15    0.06    0.06    0.02    0.06    0.06    0.09    0.08    0.63  143.17  196.54    1.03   43.95    0.00   99.22  130.62
 2004 251   334   120     2   130.1    5.9    2.7    3.2    0.18    0.16    0.19    0.23    0.25    0.23    0.25    0.16    0.06    0.07    0.02    0.06    0.06    0.09    0.08    0.63  143.40  196.68    1.03   44.01    0.00   99.39  130.62
 2004 252   335   120     2   130.1    6.0    2.8    3.2    0.21    0.17    0.19    0.24    0.26    0.24    0.25    0.16    0.06    0.07    0.02    0.06    0.06    0.09    0.08    0.64  143.64  196.83    1.03   44.07    0.00   99.57  130.63
 2004 253   336   120     2   130.1    6.2    2.9    3.2    0.27    0.19    0.21    0.25    0.26    0.26    0.26    0.16    0.05    0.06    0.01    0.06    0.06    0.08    0.08    0.64  143.86  197.01    1.03   44.13    0.00   99.73  130.66
 2004 254   337   120     2   130.1    6.3    3.0    3.2    0.30    0.20    0.22    0.26    0.26    0.26    0.26    0.17    0.06    0.06    0.01    0.06    0.06    0.08    0.07    0.65  144.07  197.18    1.03   44.19    0.00   99.88  130.72
 2004 255   338   120     2   130.1    6.3    3.1    3.2    0.14    0.20    0.29    0.31    0.27    0.26    0.26    0.17    0.05    0.06    0.01    0.05    0.05    0.07    0.07    0.65  144.27  197.34    1.03   44.24    0.00  100.02  130.85
 2004 256   339   120     2   130.1    6.2    3.0    3.2    0.15    0.19    0.25    0.28    0.29    0.27    0.26    0.18    0.05    0.06    0.01    0.05    0.05    0.07    0.06    0.65  144.48  197.49    1.04   44.30    0.00  100.18  131.04
 2004 257   340   120     2   130.1    6.2    3.0    3.2    0.10    0.15    0.23    0.28    0.29    0.29    0.28    0.18    0.05    0.06    0.01    0.06    0.05    0.06    0.06    0.66  144.70  197.64    1.04   44.37    0.00  100.33  131.20
 2004 258   341   120     2   130.2    6.0    2.8    3.2    0.12    0.14    0.21    0.25    0.27    0.25    0.26    0.18    0.05    0.06    0.01    0.06    0.05    0.07    0.06    0.66  144.92  197.76    1.04   44.44    0.00  100.48  131.41
 2004 259   342   120     2   130.4    5.9    2.7    3.3    0.09    0.11    0.18    0.25    0.27    0.25    0.26    0.17    0.05    0.06    0.01    0.05    0.05    0.07    0.07    0.66  145.12  197.87    1.04   44.50    0.00  100.62  131.46
 2004 260   343   120     2   130.8    5.6    2.3    3.3    0.11    0.10    0.14    0.20    0.22    0.21    0.24    0.16    0.06    0.06    0.01    0.06    0.05    0.07    0.07    0.67  145.31  197.98    1.04   44.55    0.00  100.75  131.50
 2004 261   344   120     2   131.0    5.6    2.3    3.3    0.15    0.10    0.13    0.19    0.21    0.21    0.23    0.14    0.05    0.06    0.01    0.06    0.05    0.07    0.07    0.67  145.50  198.08    1.05   44.63    0.00  100.87  131.50
 2004 262   345   120     2   131.0    5.7    2.4    3.3    0.20    0.11    0.14    0.20    0.22    0.22    0.23    0.14    0.05    0.06    0.01    0.06    0.05    0.07    0.07    0.67  145.71  198.21    1.05   44.70    0.00  101.01  131.50
 2004 263   346   120     2   131.0    5.8    2.5    3.3    0.13    0.14    0.18    0.23    0.24    0.23    0.24    0.15    0.05    0.06    0.01    0.06    0.05    0.06    0.07    0.68  145.92  198.36    1.05   44.76    0.00  101.16  131.50
 2004 264   347   120     2   131.0    6.0    2.7    3.3    0.14    0.14    0.19    0.25    0.27    0.25    0.25    0.15    0.04    0.06    0.01    0.06    0.05    0.06    0.06    0.68  146.14  198.51    1.05   44.83    0.00  101.31  131.50
 2004 265   348   120     2   131.0    6.1    2.8    3.3    0.15    0.14    0.19    0.26    0.27    0.26    0.27    0.16    0.04    0.06    0.01    0.06    0.05    0.06    0.06    0.69  146.37  198.65    1.05   44.90    0.00  101.47  131.53
 2004 266   349   120     2   131.2    6.0    2.6    3.4    0.17    0.14    0.18    0.24    0.25    0.24    0.25    0.16    0.05    0.06    0.01    0.06    0.05    0.07    0.06    0.69  146.60  198.78    1.05   44.97    0.00  101.63  131.63
 2004 267   350   120     2   131.2    6.2    2.8    3.4    0.17    0.16    0.20    0.26    0.26    0.25    0.26    0.16    0.05    0.06    0.02    0.06    0.05    0.06    0.06    0.69  146.83  198.93    1.05   45.05    0.00  101.78  131.63
 2004 268   351   120     2   131.2    6.3    2.9    3.4    0.22    0.17    0.21    0.27    0.27    0.26    0.27    0.17    0.05    0.06    0.01    0.06    0.05    0.06    0.06    0.70  147.05  199.08    1.05   45.12    0.00  101.93  131.63
 2004 269   352   120     2   131.2    6.5    3.1    3.4    0.29    0.18    0.22    0.28    0.28    0.27    0.28    0.17    0.05    0.06    0.01    0.06    0.05    0.06    0.06    0.70  147.27  199.23    1.05   45.19    0.00  102.08  131.63
 2004 270   353   120     2   131.2    6.6    3.2    3.4    0.24    0.24    0.26    0.29    0.29    0.28    0.29    0.17    0.05    0.05    0.01    0.05    0.05    0.05    0.05    0.70  147.46  199.37    1.05   45.24    0.00  102.21  131.63
 2004 271   354   120     2   131.2    6.7    3.4    3.3    0.27    0.25    0.30    0.30    0.30    0.29    0.30    0.19    0.04    0.06    0.01    0.05    0.04    0.05    0.05    0.69  147.66  199.58    1.05   45.31    0.00  102.35  131.63
 2004 272   355   120     2   131.2    6.9    3.6    3.2    0.32    0.26    0.31    0.31    0.30    0.30    0.30    0.21    0.04    0.06    0.01    0.05    0.04    0.05    0.05    0.68  147.87  199.77    1.05   45.37    0.00  102.50  131.63
 2004 273   356   120     2   131.2    7.0    3.8    3.2    0.27    0.31    0.38    0.32    0.31    0.30    0.31    0.23    0.05    0.05    0.01    0.04    0.04    0.04    0.04    0.68  148.05  199.97    1.05   45.42    0.00  102.63  131.63
 2004 274   357   120     2   131.2    7.2    4.0    3.1    0.33    0.32    0.41    0.32    0.32    0.31    0.32    0.25    0.04    0.05    0.01    0.04    0.04    0.04    0.04    0.67  148.25  200.17    1.05   45.48    0.00  102.77  131.63
 2004 275   358   120     2   131.2    7.3    4.2    3.1    0.41    0.33    0.41    0.33    0.32    0.32    0.33    0.26    0.04    0.05    0.01    0.04    0.03    0.04    0.04    0.66  148.44  200.36    1.05   45.53    0.00  102.91  131.63
 2004 276   359   120     2   131.2    7.4    4.4    3.0    0.46    0.34    0.42    0.34    0.33    0.32    0.33    0.28    0.05    0.05    0.01    0.03    0.03    0.04    0.04    0.65  148.61  200.55    1.05   45.57    0.00  103.03  131.63
 2004 277   360   120     2   131.2    7.5    4.6    2.9    0.50    0.35    0.42    0.34    0.34    0.33    0.34    0.30    0.05    0.04    0.01    0.03    0.03    0.03    0.04    0.64  148.75  200.72    1.05   45.61    0.00  103.14  131.63
 2004 278   361   120     2   131.2    7.6    4.7    2.9    0.54    0.36    0.43    0.35    0.34    0.34    0.35    0.32    0.04    0.04    0.01    0.03    0.03    0.03    0.03    0.63  148.87  200.88    1.05   45.63    0.00  103.24  131.63
 2004 279   362   120     2   131.2    7.7    4.9    2.8    0.57    0.36    0.43    0.36    0.35    0.34    0.36    0.34    0.02    0.04    0.01    0.03    0.02    0.03    0.03    0.62  148.99  201.03    1.05   45.66    0.00  103.33  131.63
 2004 280   363   120     2   131.2    7.8    5.0    2.8    0.60    0.37    0.43    0.36    0.35    0.35    0.36    0.35    0.03    0.03    0.00    0.02    0.02    0.03    0.03    0.61  149.10  201.17    1.05   45.69    0.00  103.42  131.63
 2004 281   364   120     2   131.2    7.9    5.2    2.7    0.62    0.37    0.44    0.37    0.36    0.36    0.37    0.37    0.03    0.03    0.00    0.02    0.02    0.03    0.03    0.60  149.21  201.30    1.05   45.71    0.00  103.50  131.63
 2004 282   365   120     2   131.2    8.0    5.3    2.7    0.65    0.38    0.44    0.37    0.36    0.36    0.37    0.39    0.03    0.03    0.00    0.02    0.02    0.03    0.03    0.59  149.31  201.43    1.05   45.73    0.00  103.58  131.63
 2004 283   366   120     2   131.2    8.0    5.4    2.6    0.67    0.38    0.44    0.38    0.37    0.37    0.38    0.40    0.03    0.02    0.00    0.02    0.02    0.02    0.03    0.59  149.40  201.55    1.05   45.74    0.00  103.66  131.63
 2004 284   367   120     2   131.2    8.1    5.5    2.6    0.69    0.38    0.44    0.38    0.37    0.37    0.38    0.42    0.02    0.02    0.00    0.02    0.02    0.02    0.02    0.58  149.49  201.67    1.05   45.76    0.00  103.73  131.63
 2004 285   368   120     2   131.2    8.2    5.7    2.5    0.53    0.47    0.44    0.39    0.38    0.38    0.39    0.44    0.02    0.02    0.00    0.02    0.02    0.02    0.02    0.57  149.57  201.78    1.05   45.77    0.00  103.80  131.63
 2004 286   369   120     2   131.2    8.3    5.8    2.5    0.54    0.48    0.44    0.39    0.38    0.38    0.39    0.45    0.01    0.02    0.00    0.01    0.01    0.02    0.02    0.57  149.68  201.90    1.05   45.81    0.00  103.87  131.63
 2004 287   370   120     2   131.2    8.4    5.9    2.5    0.66    0.47    0.41    0.39    0.38    0.38    0.40    0.47    0.05    0.02    0.00    0.01    0.01    0.02    0.02    0.56  149.80  202.01    1.05   45.83    0.00  103.97  131.63
 2004 288   371   120     2   131.2    8.4    6.0    2.4    0.70    0.47    0.41    0.39    0.38    0.39    0.40    0.48    0.04    0.02    0.00    0.01    0.01    0.02    0.02    0.55  149.90  202.13    1.05   45.85    0.00  104.05  131.63
 2004 289   372   120     2   131.2    8.5    6.1    2.4    0.73    0.48    0.41    0.39    0.38    0.39    0.41    0.50    0.03    0.02    0.00    0.01    0.01    0.02    0.02    0.54  149.98  202.24    1.05   45.87    0.00  104.12  131.63
 2004 290   373   120     2   131.2    8.6    6.2    2.4    0.75    0.48    0.41    0.40    0.39    0.40    0.41    0.51    0.03    0.02    0.00    0.01    0.01    0.02    0.02    0.54  150.06  202.34    1.05   45.88    0.00  104.18  131.63
 2004 291   374   120     2   131.2    8.6    6.3    2.3    0.78    0.48    0.41    0.40    0.39    0.40    0.42    0.53    0.02    0.02    0.00    0.01    0.01    0.02    0.02    0.53  150.13  202.44    1.05   45.89    0.00  104.24  131.63
 2004 292   375   120     2   131.2    8.7    6.4    2.3    0.79    0.48    0.41    0.40    0.39    0.40    0.42    0.54    0.02    0.01    0.00    0.01    0.01    0.02    0.02    0.52  150.20  202.54    1.05   45.90    0.00  104.30  131.63
 2004 293   376   120     2   131.2    8.7    6.5    2.2    0.81    0.48    0.41    0.40    0.39    0.41    0.42    0.56    0.02    0.01    0.00    0.01    0.01    0.01    0.02    0.52  150.27  202.63    1.05   45.91    0.00  104.36  131.63
 2004 294   377   120     2   131.2    8.8    6.6    2.2    0.83    0.48    0.41    0.41    0.40    0.41    0.43    0.57    0.01    0.01    0.00    0.01    0.01    0.01    0.01    0.51  150.33  202.72    1.05   45.92    0.00  104.41  131.63
