*Soil Inorganic Phosphorus daily output file

*DSSAT Cropping System Model Ver. 4.5.1.023 -Stub         DEC 04, 2014; 01:35:45
                                                                                
*RUN   1        : N0 P0                     MZCER045 GHWA0401    1              
 MODEL          : MZCER045 - Maize                                              
 EXPERIMENT     : GHWA0401 MZ ON-STATION NXP (EXPERIMENT NO.2) 9 TRT            
 DATA PATH      :                                                               
 TREATMENT  1   : N0 P0                     MZCER045                            
  
!                                                                                                              P avail (kg/ha) by soil depth (cm):          P uptake (kg/ha) by soil depth (cm):         Labile P (ppm) by soil depth (cm):
!                                                                                                              0-5     5-15    15-20    20-30    30-90      0-5     5-15    15-20    20-30    30-90      0-5     5-15    15-20    20-30    30-90
@YEAR DOY   DAS     PIAD    PAVLD    PSOLD    PLABD    PACTD    PSTAD     PAPC     PMNC     PIMC     PUPC    PAV1D    PAV2D    PAV3D    PAV4D    PAV5D    PUP1D    PUP2D    PUP3D    PUP4D    PUP5D    PLAB1    PLAB2    PLAB3    PLAB4    PLAB5
 2003 283     0   5707.8    0.000    1.768     87.0   1124.2   4496.7      0.0     0.00     0.00     0.00    0.000    0.000    0.000    0.000    0.000    0.000    0.000    0.000    0.000    0.000     6.45     6.49     6.49     6.49     6.49
 2003 283     1   5707.9    0.000    1.756     87.1   1124.0   4496.9      0.0     0.14     0.05     0.00    0.000    0.000    0.000    0.000    0.000    0.000    0.000    0.000    0.000    0.000     6.58     6.49     6.49     6.49     6.49
 2003 284     2   5708.0    0.000    1.757     87.1   1123.8   4497.1      0.0     0.25     0.09     0.00    0.000    0.000    0.000    0.000    0.000    0.000    0.000    0.000    0.000    0.000     6.67     6.49     6.49     6.49     6.49
 2003 285     3   5708.1    0.000    1.865     87.2   1123.6   4497.3      0.0     0.36     0.13     0.00    0.000    0.000    0.000    0.000    0.000    0.000    0.000    0.000    0.000    0.000     6.76     6.49     6.49     6.49     6.49
 2003 286     4   5708.1    0.000    1.797     87.3   1123.4   4497.5      0.0     0.47     0.17     0.00    0.000    0.000    0.000    0.000    0.000    0.000    0.000    0.000    0.000    0.000     6.85     6.49     6.49     6.49     6.49
 2003 287     5   5708.2    0.000    1.921     87.3   1123.2   4497.7      0.0     0.58     0.21     0.00    0.000    0.000    0.000    0.000    0.000    0.000    0.000    0.000    0.000    0.000     6.94     6.49     6.49     6.49     6.49
 2003 288     6   5708.3    0.000    2.445     87.4   1123.0   4497.9      0.0     0.67     0.24     0.00    0.000    0.000    0.000    0.000    0.000    0.000    0.000    0.000    0.000    0.000     7.00     6.49     6.49     6.49     6.49
 2003 289     7   5708.3    0.000    2.353     87.4   1122.8   4498.1      0.0     0.75     0.27     0.00    0.000    0.000    0.000    0.000    0.000    0.000    0.000    0.000    0.000    0.000     7.06     6.49     6.49     6.49     6.49
 2003 290     8   5708.4    0.000    2.295     87.4   1122.6   4498.3      0.0     0.82     0.30     0.00    0.000    0.000    0.000    0.000    0.000    0.000    0.000    0.000    0.000    0.000     7.10     6.49     6.50     6.49     6.49
 2003 291     9   5708.4    0.000    2.093     87.4   1122.4   4498.5      0.0     0.89     0.33     0.00    0.000    0.000    0.000    0.000    0.000    0.000    0.000    0.000    0.000    0.000     7.13     6.49     6.50     6.49     6.49
 2003 292    10   5708.4    0.000    1.883     87.4   1122.3   4498.7      0.0     0.96     0.36     0.00    0.000    0.000    0.000    0.000    0.000    0.000    0.000    0.000    0.000    0.000     7.17     6.49     6.50     6.49     6.49
 2003 293    11   5708.5    0.000    1.797     87.5   1122.1   4498.9      0.0     1.02     0.39     0.00    0.000    0.000    0.000    0.000    0.000    0.000    0.000    0.000    0.000    0.000     7.20     6.49     6.50     6.49     6.49
 2003 294    12   5708.5    0.000    1.741     87.5   1121.9   4499.1      0.0     1.07     0.42     0.00    0.000    0.000    0.000    0.000    0.000    0.000    0.000    0.000    0.000    0.000     7.22     6.49     6.50     6.49     6.49
 2003 295    13   5708.5    0.000    1.729     87.5   1121.7   4499.3      0.0     1.11     0.44     0.00    0.000    0.000    0.000    0.000    0.000    0.000    0.000    0.000    0.000    0.000     7.23     6.49     6.50     6.49     6.49
 2003 296    14   5708.5    0.000    1.886     87.4   1121.5   4499.5      0.0     1.15     0.46     0.00    0.000    0.000    0.000    0.000    0.000    0.000    0.000    0.000    0.000    0.000     7.23     6.49     6.50     6.49     6.49
 2003 297    15   5708.6    0.000    1.854     87.5   1121.3   4499.8      0.0     1.22     0.49     0.00    0.000    0.000    0.000    0.000    0.000    0.000    0.000    0.000    0.000    0.000     7.26     6.49     6.50     6.49     6.49
 2003 298    16   5708.6    0.000    1.783     87.5   1121.2   4500.0      0.0     1.28     0.52     0.00    0.000    0.000    0.000    0.000    0.000    0.000    0.000    0.000    0.000    0.000     7.29     6.49     6.50     6.49     6.49
 2003 299    17   5708.6    0.000    1.768     87.5   1121.0   4500.2      0.0     1.34     0.55     0.00    0.000    0.000    0.000    0.000    0.000    0.000    0.000    0.000    0.000    0.000     7.31     6.49     6.50     6.49     6.49
 2003 300    18   5708.6    0.000    1.753     87.5   1120.8   4500.4      0.0     1.38     0.57     0.00    0.000    0.000    0.000    0.000    0.000    0.000    0.000    0.000    0.000    0.000     7.32     6.49     6.50     6.49     6.49
 2003 301    19   5708.7    0.000    1.739     87.5   1120.6   4500.6      0.0     1.42     0.59     0.00    0.000    0.000    0.000    0.000    0.000    0.000    0.000    0.000    0.000    0.000     7.32     6.49     6.50     6.49     6.49
 2003 302    20   5708.7    0.000    1.727     87.5   1120.5   4500.8      0.0     1.45     0.61     0.00    0.000    0.000    0.000    0.000    0.000    0.000    0.000    0.000    0.000    0.000     7.32     6.49     6.50     6.49     6.49
 2003 303    21   5708.7    0.000    1.803     87.4   1120.3   4501.0      0.0     1.48     0.63     0.00    0.000    0.000    0.000    0.000    0.000    0.000    0.000    0.000    0.000    0.000     7.31     6.49     6.50     6.49     6.49
 2003 304    22   5708.7    0.000    1.741     87.4   1120.1   4501.2      0.0     1.53     0.65     0.00    0.000    0.000    0.000    0.000    0.000    0.000    0.000    0.000    0.000    0.000     7.32     6.49     6.50     6.49     6.49
 2003 305    23   5708.7    0.000    1.725     87.4   1119.9   4501.4      0.0     1.57     0.67     0.00    0.000    0.000    0.000    0.000    0.000    0.000    0.000    0.000    0.000    0.000     7.32     6.49     6.50     6.49     6.49
 2003 306    24   5708.7    0.000    1.710     87.4   1119.8   4501.6      0.0     1.60     0.69     0.00    0.000    0.000    0.000    0.000    0.000    0.000    0.000    0.000    0.000    0.000     7.32     6.49     6.49     6.49     6.49
 2003 307    25   5708.8    0.000    1.697     87.4   1119.6   4501.8      0.0     1.63     0.71     0.00    0.000    0.000    0.000    0.000    0.000    0.000    0.000    0.000    0.000    0.000     7.32     6.49     6.49     6.48     6.48
 2003 308    26   5708.8    0.000    1.684     87.4   1119.4   4502.0      0.0     1.65     0.72     0.00    0.000    0.000    0.000    0.000    0.000    0.000    0.000    0.000    0.000    0.000     7.31     6.49     6.49     6.48     6.48
 2003 309    27   5708.8    0.000    1.672     87.4   1119.2   4502.2      0.0     1.67     0.74     0.00    0.000    0.000    0.000    0.000    0.000    0.000    0.000    0.000    0.000    0.000     7.29     6.49     6.49     6.48     6.48
 2003 310    28   5708.8    0.000    1.958     87.3   1119.1   4502.4      0.0     1.69     0.75     0.00    0.000    0.000    0.000    0.000    0.000    0.000    0.000    0.000    0.000    0.000     7.28     6.49     6.49     6.48     6.48
 2003 311    29   5708.8    0.000    2.041     87.3   1118.9   4502.6      0.0     1.72     0.77     0.00    0.000    0.000    0.000    0.000    0.000    0.000    0.000    0.000    0.000    0.000     7.28     6.49     6.49     6.48     6.48
 2003 312    30   5708.8    0.000    1.932     87.3   1118.7   4502.8      0.0     1.75     0.79     0.00    0.000    0.000    0.000    0.000    0.000    0.000    0.000    0.000    0.000    0.000     7.27     6.49     6.49     6.48     6.48
 2003 313    31   5708.8    0.000    1.832     87.3   1118.5   4503.0      0.0     1.78     0.81     0.00    0.000    0.000    0.000    0.000    0.000    0.000    0.000    0.000    0.000    0.000     7.27     6.49     6.49     6.48     6.48
 2003 314    32   5708.8    0.000    1.768     87.3   1118.3   4503.2      0.0     1.81     0.82     0.00    0.000    0.000    0.000    0.000    0.000    0.000    0.000    0.000    0.000    0.000     7.27     6.49     6.49     6.48     6.48
 2003 315    33   5708.8    0.000    1.754     87.3   1118.2   4503.4      0.0     1.83     0.84     0.00    0.000    0.000    0.000    0.000    0.000    0.000    0.000    0.000    0.000    0.000     7.26     6.49     6.49     6.48     6.48
 2003 316    34   5708.8    0.000    1.740     87.2   1118.0   4503.6      0.0     1.84     0.85     0.00    0.000    0.000    0.000    0.000    0.000    0.000    0.000    0.000    0.000    0.000     7.24     6.49     6.49     6.48     6.48
 2003 317    35   5708.8    0.000    1.728     87.2   1117.8   4503.8      0.0     1.86     0.87     0.00    0.000    0.000    0.000    0.000    0.000    0.000    0.000    0.000    0.000    0.000     7.23     6.49     6.49     6.48     6.48
 2003 318    36   5708.8    0.000    1.716     87.2   1117.6   4504.0      0.0     1.88     0.88     0.00    0.000    0.000    0.000    0.000    0.000    0.000    0.000    0.000    0.000    0.000     7.22     6.49     6.49     6.48     6.48
 2003 319    37   5708.8    0.000    1.706     87.2   1117.5   4504.2      0.0     1.89     0.90     0.00    0.000    0.000    0.000    0.000    0.000    0.000    0.000    0.000    0.000    0.000     7.20     6.49     6.49     6.48     6.48
 2003 320    38   5708.8    0.000    1.696     87.2   1117.3   4504.4      0.0     1.90     0.91     0.00    0.000    0.000    0.000    0.000    0.000    0.000    0.000    0.000    0.000    0.000     7.19     6.49     6.49     6.48     6.48
 2003 321    39   5708.8    0.000    1.686     87.1   1117.1   4504.6      0.0     1.91     0.93     0.00    0.000    0.000    0.000    0.000    0.000    0.000    0.000    0.000    0.000    0.000     7.17     6.49     6.49     6.48     6.48
 2003 322    40   5708.8    0.000    1.678     87.1   1116.9   4504.8      0.0     1.92     0.94     0.00    0.000    0.000    0.000    0.000    0.000    0.000    0.000    0.000    0.000    0.000     7.15     6.49     6.49     6.48     6.48
 2003 323    41   5708.8    0.000    1.671     87.1   1116.8   4505.0      0.0     1.93     0.95     0.00    0.000    0.000    0.000    0.000    0.000    0.000    0.000    0.000    0.000    0.000     7.14     6.49     6.49     6.48     6.48
 2003 324    42   5708.8    0.000    1.669     87.1   1116.6   4505.2      0.0     1.94     0.96     0.00    0.000    0.000    0.000    0.000    0.000    0.000    0.000    0.000    0.000    0.000     7.12     6.49     6.49     6.48     6.48
 2003 325    43   5708.8    0.000    1.666     87.0   1116.4   4505.4      0.0     1.94     0.97     0.00    0.000    0.000    0.000    0.000    0.000    0.000    0.000    0.000    0.000    0.000     7.10     6.49     6.49     6.48     6.48
 2003 326    44   5708.8    0.000    1.664     87.0   1116.2   4505.6      0.0     1.95     0.99     0.00    0.000    0.000    0.000    0.000    0.000    0.000    0.000    0.000    0.000    0.000     7.08     6.49     6.49     6.48     6.48
 2003 327    45   5708.8    0.000    1.661     87.0   1116.0   4505.8      0.0     1.95     1.00     0.00    0.000    0.000    0.000    0.000    0.000    0.000    0.000    0.000    0.000    0.000     7.07     6.49     6.49     6.48     6.48
 2003 328    46   5708.8    0.000    1.659     87.0   1115.9   4506.0      0.0     1.96     1.01     0.00    0.000    0.000    0.000    0.000    0.000    0.000    0.000    0.000    0.000    0.000     7.05     6.49     6.49     6.48     6.48
 2003 329    47   5708.8    0.000    1.657     86.9   1115.7   4506.2      0.0     1.96     1.02     0.00    0.000    0.000    0.000    0.000    0.000    0.000    0.000    0.000    0.000    0.000     7.04     6.49     6.49     6.48     6.48
 2003 330    48   5708.8    0.000    1.654     86.9   1115.5   4506.4      0.0     1.97     1.03     0.00    0.000    0.000    0.000    0.000    0.000    0.000    0.000    0.000    0.000    0.000     7.02     6.49     6.49     6.47     6.47
 2003 331    49   5708.8    0.000    1.652     86.9   1115.3   4506.6      0.0     1.97     1.04     0.00    0.000    0.000    0.000    0.000    0.000    0.000    0.000    0.000    0.000    0.000     7.01     6.49     6.49     6.47     6.47
 2003 332    50   5708.8    0.000    1.650     86.9   1115.1   4506.8      0.0     1.98     1.05     0.00    0.000    0.000    0.000    0.000    0.000    0.000    0.000    0.000    0.000    0.000     6.99     6.49     6.49     6.47     6.47
 2003 333    51   5708.8    0.000    1.647     86.8   1114.9   4507.0      0.0     1.98     1.06     0.00    0.000    0.000    0.000    0.000    0.000    0.000    0.000    0.000    0.000    0.000     6.98     6.49     6.49     6.47     6.47
 2003 334    52   5708.7    0.000    1.645     86.8   1114.8   4507.2      0.0     1.99     1.08     0.00    0.000    0.000    0.000    0.000    0.000    0.000    0.000    0.000    0.000    0.000     6.97     6.49     6.49     6.47     6.47
 2003 335    53   5708.7    0.000    1.643     86.8   1114.6   4507.4      0.0     1.99     1.09     0.00    0.000    0.000    0.000    0.000    0.000    0.000    0.000    0.000    0.000    0.000     6.95     6.48     6.49     6.47     6.47
 2003 336    54   5708.7    0.000    1.640     86.8   1114.4   4507.6      0.0     2.00     1.10     0.00    0.000    0.000    0.000    0.000    0.000    0.000    0.000    0.000    0.000    0.000     6.94     6.48     6.49     6.47     6.47
 2003 337    55   5708.7    0.000    1.638     86.8   1114.2   4507.8      0.0     2.00     1.11     0.00    0.000    0.000    0.000    0.000    0.000    0.000    0.000    0.000    0.000    0.000     6.93     6.48     6.49     6.47     6.47
 2003 338    56   5708.7    0.000    1.636     86.7   1114.0   4508.0      0.0     2.00     1.12     0.00    0.000    0.000    0.000    0.000    0.000    0.000    0.000    0.000    0.000    0.000     6.92     6.48     6.49     6.47     6.47
 2003 339    57   5708.7    0.000    1.634     86.7   1113.8   4508.2      0.0     2.01     1.13     0.00    0.000    0.000    0.000    0.000    0.000    0.000    0.000    0.000    0.000    0.000     6.91     6.48     6.49     6.47     6.47
 2003 340    58   5708.7    0.000    1.632     86.7   1113.7   4508.4      0.0     2.01     1.14     0.00    0.000    0.000    0.000    0.000    0.000    0.000    0.000    0.000    0.000    0.000     6.90     6.48     6.49     6.47     6.47
 2003 341    59   5708.7    0.000    1.629     86.7   1113.5   4508.6      0.0     2.02     1.15     0.00    0.000    0.000    0.000    0.000    0.000    0.000    0.000    0.000    0.000    0.000     6.89     6.48     6.49     6.47     6.47
 2003 342    60   5708.7    0.000    1.627     86.7   1113.3   4508.8      0.0     2.02     1.16     0.00    0.000    0.000    0.000    0.000    0.000    0.000    0.000    0.000    0.000    0.000     6.88     6.48     6.49     6.47     6.47
 2003 343    61   5708.7    0.000    1.625     86.6   1113.1   4508.9      0.0     2.03     1.17     0.00    0.000    0.000    0.000    0.000    0.000    0.000    0.000    0.000    0.000    0.000     6.87     6.48     6.49     6.47     6.47
 2003 344    62   5708.7    0.000    1.623     86.6   1112.9   4509.1      0.0     2.03     1.18     0.00    0.000    0.000    0.000    0.000    0.000    0.000    0.000    0.000    0.000    0.000     6.86     6.48     6.49     6.47     6.47
 2003 345    63   5708.7    0.000    1.621     86.6   1112.7   4509.3      0.0     2.03     1.19     0.00    0.000    0.000    0.000    0.000    0.000    0.000    0.000    0.000    0.000    0.000     6.85     6.48     6.49     6.47     6.47
 2003 346    64   5708.7    0.000    1.618     86.6   1112.6   4509.5      0.0     2.04     1.20     0.00    0.000    0.000    0.000    0.000    0.000    0.000    0.000    0.000    0.000    0.000     6.85     6.48     6.49     6.47     6.47
 2003 347    65   5708.7    0.000    1.616     86.6   1112.4   4509.7      0.0     2.04     1.21     0.00    0.000    0.000    0.000    0.000    0.000    0.000    0.000    0.000    0.000    0.000     6.84     6.48     6.49     6.47     6.47
 2003 348    66   5708.7    0.000    1.614     86.5   1112.2   4509.9      0.0     2.05     1.22     0.00    0.000    0.000    0.000    0.000    0.000    0.000    0.000    0.000    0.000    0.000     6.83     6.48     6.49     6.47     6.47
 2003 349    67   5708.7    0.000    1.612     86.5   1112.0   4510.1      0.0     2.05     1.23     0.00    0.000    0.000    0.000    0.000    0.000    0.000    0.000    0.000    0.000    0.000     6.83     6.48     6.49     6.47     6.47
 2003 350    68   5708.6    0.000    1.610     86.5   1111.8   4510.3      0.0     2.05     1.24     0.00    0.000    0.000    0.000    0.000    0.000    0.000    0.000    0.000    0.000    0.000     6.82     6.48     6.49     6.47     6.47
 2003 351    69   5708.6    0.000    1.608     86.5   1111.6   4510.5      0.0     2.06     1.25     0.00    0.000    0.000    0.000    0.000    0.000    0.000    0.000    0.000    0.000    0.000     6.81     6.48     6.49     6.47     6.47
 2003 352    70   5708.6    0.000    1.606     86.5   1111.4   4510.7      0.0     2.06     1.26     0.00    0.000    0.000    0.000    0.000    0.000    0.000    0.000    0.000    0.000    0.000     6.81     6.48     6.49     6.46     6.46
 2003 353    71   5708.6    0.000    1.604     86.5   1111.3   4510.9      0.0     2.07     1.27     0.00    0.000    0.000    0.000    0.000    0.000    0.000    0.000    0.000    0.000    0.000     6.80     6.48     6.49     6.46     6.46
 2003 354    72   5708.6    0.000    1.602     86.4   1111.1   4511.1      0.0     2.07     1.28     0.00    0.000    0.000    0.000    0.000    0.000    0.000    0.000    0.000    0.000    0.000     6.79     6.48     6.49     6.46     6.46
 2003 355    73   5708.6    0.000    1.600     86.4   1110.9   4511.3      0.0     2.08     1.29     0.00    0.000    0.000    0.000    0.000    0.000    0.000    0.000    0.000    0.000    0.000     6.79     6.48     6.49     6.46     6.46
 2003 356    74   5708.6    0.000    1.598     86.4   1110.7   4511.5      0.0     2.08     1.30     0.00    0.000    0.000    0.000    0.000    0.000    0.000    0.000    0.000    0.000    0.000     6.78     6.48     6.49     6.46     6.46
 2003 357    75   5708.6    0.000    1.596     86.4   1110.5   4511.7      0.0     2.08     1.31     0.00    0.000    0.000    0.000    0.000    0.000    0.000    0.000    0.000    0.000    0.000     6.78     6.48     6.49     6.46     6.46
 2003 358    76   5708.6    0.000    1.594     86.4   1110.3   4511.9      0.0     2.09     1.32     0.00    0.000    0.000    0.000    0.000    0.000    0.000    0.000    0.000    0.000    0.000     6.77     6.48     6.49     6.46     6.46
 2003 359    77   5708.6    0.000    1.592     86.4   1110.1   4512.1      0.0     2.09     1.33     0.00    0.000    0.000    0.000    0.000    0.000    0.000    0.000    0.000    0.000    0.000     6.77     6.48     6.49     6.46     6.46
 2003 360    78   5708.6    0.000    1.590     86.4   1110.0   4512.3      0.0     2.10     1.34     0.00    0.000    0.000    0.000    0.000    0.000    0.000    0.000    0.000    0.000    0.000     6.76     6.48     6.49     6.46     6.46
 2003 361    79   5708.6    0.000    1.588     86.3   1109.8   4512.5      0.0     2.10     1.35     0.00    0.000    0.000    0.000    0.000    0.000    0.000    0.000    0.000    0.000    0.000     6.76     6.48     6.49     6.46     6.46
 2003 362    80   5708.6    0.000    1.586     86.3   1109.6   4512.7      0.0     2.10     1.36     0.00    0.000    0.000    0.000    0.000    0.000    0.000    0.000    0.000    0.000    0.000     6.76     6.48     6.49     6.46     6.46
 2003 363    81   5708.6    0.000    1.584     86.3   1109.4   4512.9      0.0     2.11     1.37     0.00    0.000    0.000    0.000    0.000    0.000    0.000    0.000    0.000    0.000    0.000     6.75     6.48     6.49     6.46     6.46
 2003 364    82   5708.6    0.000    1.582     86.3   1109.2   4513.1      0.0     2.11     1.38     0.00    0.000    0.000    0.000    0.000    0.000    0.000    0.000    0.000    0.000    0.000     6.75     6.48     6.49     6.46     6.46
 2003 365    83   5708.6    0.000    1.580     86.3   1109.0   4513.2      0.0     2.11     1.39     0.00    0.000    0.000    0.000    0.000    0.000    0.000    0.000    0.000    0.000    0.000     6.74     6.48     6.49     6.46     6.46
 2004 001    84   5708.6    0.000    1.578     86.3   1108.8   4513.4      0.0     2.12     1.40     0.00    0.000    0.000    0.000    0.000    0.000    0.000    0.000    0.000    0.000    0.000     6.74     6.48     6.49     6.46     6.46
 2004 002    85   5708.6    0.000    1.576     86.3   1108.7   4513.6      0.0     2.12     1.41     0.00    0.000    0.000    0.000    0.000    0.000    0.000    0.000    0.000    0.000    0.000     6.74     6.48     6.49     6.46     6.46
 2004 003    86   5708.5    0.000    1.574     86.2   1108.5   4513.8      0.0     2.12     1.42     0.00    0.000    0.000    0.000    0.000    0.000    0.000    0.000    0.000    0.000    0.000     6.73     6.48     6.49     6.46     6.46
 2004 004    87   5708.5    0.000    1.572     86.2   1108.3   4514.0      0.0     2.13     1.43     0.00    0.000    0.000    0.000    0.000    0.000    0.000    0.000    0.000    0.000    0.000     6.73     6.48     6.49     6.46     6.46
 2004 005    88   5708.5    0.000    1.570     86.2   1108.1   4514.2      0.0     2.13     1.44     0.00    0.000    0.000    0.000    0.000    0.000    0.000    0.000    0.000    0.000    0.000     6.73     6.48     6.49     6.46     6.46
 2004 006    89   5708.5    0.000    1.568     86.2   1107.9   4514.4      0.0     2.14     1.45     0.00    0.000    0.000    0.000    0.000    0.000    0.000    0.000    0.000    0.000    0.000     6.73     6.48     6.49     6.46     6.46
 2004 007    90   5708.5    0.000    1.567     86.2   1107.7   4514.6      0.0     2.14     1.46     0.00    0.000    0.000    0.000    0.000    0.000    0.000    0.000    0.000    0.000    0.000     6.72     6.48     6.49     6.46     6.46
 2004 008    91   5708.5    0.000    1.565     86.2   1107.6   4514.8      0.0     2.14     1.47     0.00    0.000    0.000    0.000    0.000    0.000    0.000    0.000    0.000    0.000    0.000     6.72     6.48     6.49     6.45     6.45
 2004 009    92   5708.5    0.000    1.563     86.2   1107.4   4515.0      0.0     2.15     1.48     0.00    0.000    0.000    0.000    0.000    0.000    0.000    0.000    0.000    0.000    0.000     6.72     6.48     6.49     6.45     6.45
 2004 010    93   5708.5    0.000    1.561     86.1   1107.2   4515.2      0.0     2.15     1.49     0.00    0.000    0.000    0.000    0.000    0.000    0.000    0.000    0.000    0.000    0.000     6.71     6.48     6.49     6.45     6.45
 2004 011    94   5708.5    0.000    1.559     86.1   1107.0   4515.4      0.0     2.16     1.50     0.00    0.000    0.000    0.000    0.000    0.000    0.000    0.000    0.000    0.000    0.000     6.71     6.48     6.49     6.45     6.45
 2004 012    95   5708.5    0.000    1.557     86.1   1106.8   4515.6      0.0     2.16     1.51     0.00    0.000    0.000    0.000    0.000    0.000    0.000    0.000    0.000    0.000    0.000     6.71     6.48     6.49     6.45     6.45
 2004 013    96   5708.5    0.000    1.555     86.1   1106.6   4515.8      0.0     2.16     1.52     0.00    0.000    0.000    0.000    0.000    0.000    0.000    0.000    0.000    0.000    0.000     6.71     6.48     6.49     6.45     6.45
 2004 014    97   5708.5    0.000    1.554     86.1   1106.4   4515.9      0.0     2.17     1.53     0.00    0.000    0.000    0.000    0.000    0.000    0.000    0.000    0.000    0.000    0.000     6.71     6.48     6.49     6.45     6.45
 2004 015    98   5708.5    0.000    1.552     86.1   1106.3   4516.1      0.0     2.17     1.54     0.00    0.000    0.000    0.000    0.000    0.000    0.000    0.000    0.000    0.000    0.000     6.70     6.48     6.49     6.45     6.45
 2004 016    99   5708.5    0.000    1.550     86.1   1106.1   4516.3      0.0     2.18     1.55     0.00    0.000    0.000    0.000    0.000    0.000    0.000    0.000    0.000    0.000    0.000     6.70     6.48     6.49     6.45     6.45
 2004 017   100   5708.5    0.000    1.548     86.1   1105.9   4516.5      0.0     2.18     1.56     0.00    0.000    0.000    0.000    0.000    0.000    0.000    0.000    0.000    0.000    0.000     6.70     6.48     6.49     6.45     6.45
 2004 018   101   5708.5    0.000    1.546     86.0   1105.7   4516.7      0.0     2.18     1.57     0.00    0.000    0.000    0.000    0.000    0.000    0.000    0.000    0.000    0.000    0.000     6.70     6.48     6.49     6.45     6.45
 2004 019   102   5708.5    0.000    1.545     86.0   1105.5   4516.9      0.0     2.19     1.57     0.00    0.000    0.000    0.000    0.000    0.000    0.000    0.000    0.000    0.000    0.000     6.70     6.48     6.49     6.45     6.45
 2004 020   103   5708.4    0.000    2.038     86.0   1105.3   4517.1      0.0     2.19     1.58     0.00    0.000    0.000    0.000    0.000    0.000    0.000    0.000    0.000    0.000    0.000     6.69     6.48     6.49     6.45     6.45
 2004 021   104   5708.4    0.000    1.850     86.0   1105.2   4517.3      0.0     2.21     1.60     0.00    0.000    0.000    0.000    0.000    0.000    0.000    0.000    0.000    0.000    0.000     6.71     6.48     6.49     6.45     6.45
 2004 022   105   5708.5    0.000    1.792     86.0   1105.0   4517.5      0.0     2.23     1.62     0.00    0.000    0.000    0.000    0.000    0.000    0.000    0.000    0.000    0.000    0.000     6.72     6.48     6.49     6.45     6.45
 2004 023   106   5708.5    0.000    1.734     86.0   1104.8   4517.7      0.0     2.25     1.63     0.00    0.000    0.000    0.000    0.000    0.000    0.000    0.000    0.000    0.000    0.000     6.73     6.48     6.49     6.45     6.45
 2004 024   107   5708.5    0.000    1.720     86.0   1104.6   4517.9      0.0     2.26     1.65     0.00    0.000    0.000    0.000    0.000    0.000    0.000    0.000    0.000    0.000    0.000     6.73     6.48     6.49     6.45     6.45
 2004 025   108   5708.5    0.000    1.708     86.0   1104.4   4518.0      0.0     2.27     1.66     0.00    0.000    0.000    0.000    0.000    0.000    0.000    0.000    0.000    0.000    0.000     6.73     6.48     6.49     6.45     6.45
 2004 026   109   5708.5    0.000    1.696     86.0   1104.2   4518.2      0.0     2.28     1.67     0.00    0.000    0.000    0.000    0.000    0.000    0.000    0.000    0.000    0.000    0.000     6.74     6.48     6.49     6.45     6.45
 2004 027   110   5708.4    0.000    1.685     86.0   1104.1   4518.4      0.0     2.29     1.68     0.00    0.000    0.000    0.000    0.000    0.000    0.000    0.000    0.000    0.000    0.000     6.74     6.48     6.49     6.45     6.45
 2004 028   111   5708.4    0.000    1.675     86.0   1103.9   4518.6      0.0     2.30     1.69     0.00    0.000    0.000    0.000    0.000    0.000    0.000    0.000    0.000    0.000    0.000     6.74     6.48     6.49     6.45     6.45
 2004 029   112   5708.4    0.000    1.666     85.9   1103.7   4518.8      0.0     2.31     1.71     0.00    0.000    0.000    0.000    0.000    0.000    0.000    0.000    0.000    0.000    0.000     6.74     6.48     6.49     6.45     6.45
 2004 030   113   5708.4    0.000    1.657     85.9   1103.5   4519.0      0.0     2.32     1.72     0.00    0.000    0.000    0.000    0.000    0.000    0.000    0.000    0.000    0.000    0.000     6.74     6.48     6.49     6.44     6.44
 2004 031   114   5708.4    0.000    1.649     85.9   1103.3   4519.2      0.0     2.33     1.73     0.00    0.000    0.000    0.000    0.000    0.000    0.000    0.000    0.000    0.000    0.000     6.74     6.48     6.49     6.44     6.44
 2004 032   115   5708.4    0.000    1.641     85.9   1103.1   4519.4      0.0     2.33     1.74     0.00    0.000    0.000    0.000    0.000    0.000    0.000    0.000    0.000    0.000    0.000     6.74     6.48     6.49     6.44     6.44
 2004 033   116   5708.4    0.000    1.638     85.9   1103.0   4519.6      0.0     2.34     1.75     0.00    0.000    0.000    0.000    0.000    0.000    0.000    0.000    0.000    0.000    0.000     6.73     6.48     6.49     6.44     6.44
 2004 034   117   5708.4    0.000    1.636     85.9   1102.8   4519.8      0.0     2.34     1.77     0.00    0.000    0.000    0.000    0.000    0.000    0.000    0.000    0.000    0.000    0.000     6.73     6.48     6.49     6.44     6.44
 2004 035   118   5708.4    0.000    1.634     85.9   1102.6   4519.9      0.0     2.35     1.78     0.00    0.000    0.000    0.000    0.000    0.000    0.000    0.000    0.000    0.000    0.000     6.73     6.48     6.49     6.44     6.44
 2004 036   119   5708.4    0.000    1.632     85.8   1102.4   4520.1      0.0     2.35     1.79     0.00    0.000    0.000    0.000    0.000    0.000    0.000    0.000    0.000    0.000    0.000     6.73     6.48     6.49     6.44     6.44
 2004 037   120   5708.4    0.000    1.630     85.8   1102.2   4520.3      0.0     2.36     1.80     0.00    0.000    0.000    0.000    0.000    0.000    0.000    0.000    0.000    0.000    0.000     6.72     6.48     6.49     6.44     6.44
 2004 038   121   5708.4    0.000    1.627     85.8   1102.1   4520.5      0.0     2.36     1.81     0.00    0.000    0.000    0.000    0.000    0.000    0.000    0.000    0.000    0.000    0.000     6.72     6.48     6.49     6.44     6.44
 2004 039   122   5708.4    0.000    1.625     85.8   1101.9   4520.7      0.0     2.36     1.82     0.00    0.000    0.000    0.000    0.000    0.000    0.000    0.000    0.000    0.000    0.000     6.72     6.48     6.49     6.44     6.44
 2004 040   123   5708.4    0.000    1.623     85.8   1101.7   4520.9      0.0     2.37     1.83     0.00    0.000    0.000    0.000    0.000    0.000    0.000    0.000    0.000    0.000    0.000     6.72     6.48     6.49     6.44     6.44
 2004 041   124   5708.4    0.000    1.621     85.8   1101.5   4521.1      0.0     2.37     1.83     0.00    0.000    0.000    0.000    0.000    0.000    0.000    0.000    0.000    0.000    0.000     6.71     6.48     6.49     6.44     6.44
 2004 042   125   5708.4    0.000    1.619     85.8   1101.3   4521.3      0.0     2.37     1.84     0.00    0.000    0.000    0.000    0.000    0.000    0.000    0.000    0.000    0.000    0.000     6.71     6.48     6.49     6.44     6.44
 2004 043   126   5708.4    0.000    1.617     85.8   1101.2   4521.5      0.0     2.38     1.85     0.00    0.000    0.000    0.000    0.000    0.000    0.000    0.000    0.000    0.000    0.000     6.71     6.48     6.49     6.44     6.44
 2004 044   127   5708.4    0.000    1.614     85.7   1101.0   4521.6      0.0     2.38     1.86     0.00    0.000    0.000    0.000    0.000    0.000    0.000    0.000    0.000    0.000    0.000     6.71     6.48     6.48     6.44     6.44
 2004 045   128   5708.4    0.000    1.612     85.7   1100.8   4521.8      0.0     2.39     1.87     0.00    0.000    0.000    0.000    0.000    0.000    0.000    0.000    0.000    0.000    0.000     6.71     6.48     6.48     6.44     6.44
 2004 046   129   5708.3    0.000    1.610     85.7   1100.6   4522.0      0.0     2.39     1.88     0.00    0.000    0.000    0.000    0.000    0.000    0.000    0.000    0.000    0.000    0.000     6.70     6.48     6.48     6.44     6.44
 2004 047   130   5708.3    0.000    1.608     85.7   1100.4   4522.2      0.0     2.39     1.89     0.00    0.000    0.000    0.000    0.000    0.000    0.000    0.000    0.000    0.000    0.000     6.70     6.48     6.48     6.44     6.44
 2004 048   131   5708.3    0.000    1.606     85.7   1100.2   4522.4      0.0     2.40     1.91     0.00    0.000    0.000    0.000    0.000    0.000    0.000    0.000    0.000    0.000    0.000     6.70     6.48     6.48     6.44     6.44
 2004 049   132   5708.3    0.000    1.604     85.7   1100.1   4522.6      0.0     2.40     1.92     0.00    0.000    0.000    0.000    0.000    0.000    0.000    0.000    0.000    0.000    0.000     6.70     6.48     6.48     6.44     6.44
 2004 050   133   5708.3    0.000    1.602     85.7   1099.9   4522.8      0.0     2.41     1.93     0.00    0.000    0.000    0.000    0.000    0.000    0.000    0.000    0.000    0.000    0.000     6.70     6.48     6.48     6.44     6.44
 2004 051   134   5708.3    0.000    1.600     85.7   1099.7   4523.0      0.0     2.41     1.94     0.00    0.000    0.000    0.000    0.000    0.000    0.000    0.000    0.000    0.000    0.000     6.69     6.48     6.48     6.43     6.43
 2004 052   135   5708.3    0.000    1.598     85.6   1099.5   4523.1      0.0     2.41     1.95     0.00    0.000    0.000    0.000    0.000    0.000    0.000    0.000    0.000    0.000    0.000     6.69     6.48     6.48     6.43     6.43
 2004 053   136   5708.3    0.000    1.596     85.6   1099.3   4523.3      0.0     2.42     1.96     0.00    0.000    0.000    0.000    0.000    0.000    0.000    0.000    0.000    0.000    0.000     6.69     6.48     6.48     6.43     6.43
 2004 054   137   5708.3    0.000    1.594     85.6   1099.2   4523.5      0.0     2.42     1.97     0.00    0.000    0.000    0.000    0.000    0.000    0.000    0.000    0.000    0.000    0.000     6.69     6.48     6.48     6.43     6.43
 2004 055   138   5708.3    0.000    1.592     85.6   1099.0   4523.7      0.0     2.43     1.98     0.00    0.000    0.000    0.000    0.000    0.000    0.000    0.000    0.000    0.000    0.000     6.69     6.48     6.48     6.43     6.43
 2004 056   139   5708.3    0.000    1.590     85.6   1098.8   4523.9      0.0     2.43     1.99     0.00    0.000    0.000    0.000    0.000    0.000    0.000    0.000    0.000    0.000    0.000     6.69     6.48     6.48     6.43     6.43
 2004 057   140   5708.3    0.000    1.588     85.6   1098.6   4524.1      0.0     2.43     2.00     0.00    0.000    0.000    0.000    0.000    0.000    0.000    0.000    0.000    0.000    0.000     6.69     6.48     6.48     6.43     6.43
 2004 058   141   5708.3    0.000    1.586     85.6   1098.4   4524.3      0.0     2.44     2.01     0.00    0.000    0.000    0.000    0.000    0.000    0.000    0.000    0.000    0.000    0.000     6.68     6.48     6.48     6.43     6.43
 2004 059   142   5708.3    0.000    1.837     85.6   1098.3   4524.4      0.0     2.44     2.02     0.00    0.000    0.000    0.000    0.000    0.000    0.000    0.000    0.000    0.000    0.000     6.68     6.48     6.48     6.43     6.43
 2004 060   143   5708.3    0.000    1.757     85.5   1098.1   4524.6      0.0     2.46     2.04     0.00    0.000    0.000    0.000    0.000    0.000    0.000    0.000    0.000    0.000    0.000     6.69     6.48     6.48     6.43     6.43
 2004 061   144   5708.3    0.000    1.844     85.5   1097.9   4524.8      0.0     2.47     2.05     0.00    0.000    0.000    0.000    0.000    0.000    0.000    0.000    0.000    0.000    0.000     6.70     6.48     6.48     6.43     6.43
 2004 062   145   5708.3    0.000    1.775     85.5   1097.7   4525.0      0.0     2.49     2.07     0.00    0.000    0.000    0.000    0.000    0.000    0.000    0.000    0.000    0.000    0.000     6.70     6.48     6.48     6.43     6.43
 2004 063   146   5708.3    0.000    1.714     85.5   1097.5   4525.2      0.0     2.50     2.08     0.00    0.000    0.000    0.000    0.000    0.000    0.000    0.000    0.000    0.000    0.000     6.71     6.48     6.48     6.43     6.43
 2004 064   147   5708.3    0.000    1.699     85.5   1097.4   4525.4      0.0     2.51     2.10     0.00    0.000    0.000    0.000    0.000    0.000    0.000    0.000    0.000    0.000    0.000     6.71     6.48     6.48     6.43     6.43
 2004 065   148   5708.2    0.000    1.686     85.5   1097.2   4525.6      0.0     2.52     2.11     0.00    0.000    0.000    0.000    0.000    0.000    0.000    0.000    0.000    0.000    0.000     6.71     6.48     6.48     6.43     6.43
 2004 066   149   5708.2    0.000    1.674     85.5   1097.0   4525.7      0.0     2.52     2.12     0.00    0.000    0.000    0.000    0.000    0.000    0.000    0.000    0.000    0.000    0.000     6.71     6.48     6.48     6.43     6.43
 2004 067   150   5708.2    0.000    1.663     85.5   1096.8   4525.9      0.0     2.53     2.12     0.00    0.000    0.000    0.000    0.000    0.000    0.000    0.000    0.000    0.000    0.000     6.71     6.48     6.48     6.43     6.43
 2004 068   151   5708.2    0.000    1.652     85.5   1096.7   4526.1      0.0     2.54     2.13     0.00    0.000    0.000    0.000    0.000    0.000    0.000    0.000    0.000    0.000    0.000     6.71     6.48     6.48     6.43     6.43
 2004 069   152   5708.2    0.000    1.642     85.5   1096.5   4526.3      0.0     2.54     2.14     0.00    0.000    0.000    0.000    0.000    0.000    0.000    0.000    0.000    0.000    0.000     6.71     6.48     6.48     6.43     6.43
 2004 070   153   5708.2    0.000    1.633     85.5   1096.3   4526.5      0.0     2.55     2.15     0.00    0.000    0.000    0.000    0.000    0.000    0.000    0.000    0.000    0.000    0.000     6.71     6.48     6.48     6.43     6.43
 2004 071   154   5708.2    0.000    1.624     85.4   1096.1   4526.7      0.0     2.55     2.16     0.00    0.000    0.000    0.000    0.000    0.000    0.000    0.000    0.000    0.000    0.000     6.71     6.48     6.48     6.43     6.43
 2004 072   155   5708.2    0.000    1.616     85.4   1095.9   4526.9      0.0     2.56     2.17     0.00    0.000    0.000    0.000    0.000    0.000    0.000    0.000    0.000    0.000    0.000     6.70     6.48     6.48     6.42     6.43
 2004 073   156   5708.2    0.000    1.610     85.4   1095.8   4527.0      0.0     2.56     2.18     0.00    0.000    0.000    0.000    0.000    0.000    0.000    0.000    0.000    0.000    0.000     6.70     6.48     6.48     6.42     6.42
 2004 074   157   5708.2    0.000    1.607     85.4   1095.6   4527.2      0.0     2.56     2.19     0.00    0.000    0.000    0.000    0.000    0.000    0.000    0.000    0.000    0.000    0.000     6.70     6.48     6.48     6.42     6.42
 2004 075   158   5708.2    0.000    1.605     85.4   1095.4   4527.4      0.0     2.57     2.20     0.00    0.000    0.000    0.000    0.000    0.000    0.000    0.000    0.000    0.000    0.000     6.70     6.48     6.48     6.42     6.42
 2004 076   159   5708.2    0.000    1.603     85.4   1095.2   4527.6      0.0     2.57     2.21     0.00    0.000    0.000    0.000    0.000    0.000    0.000    0.000    0.000    0.000    0.000     6.70     6.48     6.48     6.42     6.42
 2004 077   160   5708.2    0.000    1.601     85.4   1095.1   4527.8      0.0     2.58     2.22     0.00    0.000    0.000    0.000    0.000    0.000    0.000    0.000    0.000    0.000    0.000     6.70     6.48     6.48     6.42     6.42
 2004 078   161   5708.2    0.000    1.599     85.4   1094.9   4528.0      0.0     2.58     2.23     0.00    0.000    0.000    0.000    0.000    0.000    0.000    0.000    0.000    0.000    0.000     6.70     6.47     6.48     6.42     6.42
 2004 079   162   5708.2    0.000    1.596     85.3   1094.7   4528.1      0.0     2.58     2.24     0.00    0.000    0.000    0.000    0.000    0.000    0.000    0.000    0.000    0.000    0.000     6.69     6.47     6.48     6.42     6.42
 2004 080   163   5708.2    0.000    1.594     85.3   1094.5   4528.3      0.0     2.59     2.25     0.00    0.000    0.000    0.000    0.000    0.000    0.000    0.000    0.000    0.000    0.000     6.69     6.47     6.48     6.42     6.42
 2004 081   164   5708.2    0.000    1.592     85.3   1094.3   4528.5      0.0     2.59     2.26     0.00    0.000    0.000    0.000    0.000    0.000    0.000    0.000    0.000    0.000    0.000     6.69     6.47     6.48     6.42     6.42
 2004 082   165   5708.2    0.000    1.590     85.3   1094.2   4528.7      0.0     2.59     2.26     0.00    0.000    0.000    0.000    0.000    0.000    0.000    0.000    0.000    0.000    0.000     6.69     6.47     6.48     6.42     6.42
 2004 083   166   5708.2    0.000    1.588     85.3   1094.0   4528.9      0.0     2.60     2.27     0.00    0.000    0.000    0.000    0.000    0.000    0.000    0.000    0.000    0.000    0.000     6.69     6.47     6.48     6.42     6.42
 2004 084   167   5708.2    0.000    1.586     85.3   1093.8   4529.1      0.0     2.60     2.28     0.00    0.000    0.000    0.000    0.000    0.000    0.000    0.000    0.000    0.000    0.000     6.69     6.47     6.48     6.42     6.42
 2004 085   168   5708.2    0.000    1.584     85.3   1093.6   4529.2      0.0     2.60     2.29     0.00    0.000    0.000    0.000    0.000    0.000    0.000    0.000    0.000    0.000    0.000     6.68     6.47     6.48     6.42     6.42
 2004 086   169   5708.1    0.000    1.581     85.3   1093.5   4529.4      0.0     2.61     2.30     0.00    0.000    0.000    0.000    0.000    0.000    0.000    0.000    0.000    0.000    0.000     6.68     6.47     6.48     6.42     6.42
 2004 087   170   5708.1    0.000    1.579     85.2   1093.3   4529.6      0.0     2.61     2.31     0.00    0.000    0.000    0.000    0.000    0.000    0.000    0.000    0.000    0.000    0.000     6.68     6.47     6.48     6.42     6.42
 2004 088   171   5708.1    0.000    1.577     85.2   1093.1   4529.8      0.0     2.62     2.32     0.00    0.000    0.000    0.000    0.000    0.000    0.000    0.000    0.000    0.000    0.000     6.68     6.47     6.48     6.42     6.42
 2004 089   172   5708.1    0.000    1.723     85.2   1092.9   4530.0      0.0     2.62     2.33     0.00    0.000    0.000    0.000    0.000    0.000    0.000    0.000    0.000    0.000    0.000     6.68     6.47     6.48     6.42     6.42
 2004 090   173   5708.1    0.000    1.801     85.2   1092.8   4530.1      0.0     2.63     2.34     0.00    0.000    0.000    0.000    0.000    0.000    0.000    0.000    0.000    0.000    0.000     6.68     6.47     6.48     6.42     6.42
 2004 091   174   5708.1    0.000    1.719     85.2   1092.6   4530.3      0.0     2.64     2.36     0.00    0.000    0.000    0.000    0.000    0.000    0.000    0.000    0.000    0.000    0.000     6.68     6.47     6.48     6.42     6.42
 2004 092   175   5708.1    0.000    1.704     85.2   1092.4   4530.5      0.0     2.65     2.37     0.00    0.000    0.000    0.000    0.000    0.000    0.000    0.000    0.000    0.000    0.000     6.69     6.47     6.48     6.42     6.42
 2004 093   176   5708.1    0.000    1.689     85.2   1092.2   4530.7      0.0     2.66     2.38     0.00    0.000    0.000    0.000    0.000    0.000    0.000    0.000    0.000    0.000    0.000     6.69     6.47     6.48     6.41     6.42
 2004 094   177   5708.1    0.000    1.676     85.2   1092.1   4530.9      0.0     2.66     2.39     0.00    0.000    0.000    0.000    0.000    0.000    0.000    0.000    0.000    0.000    0.000     6.69     6.47     6.48     6.41     6.41
 2004 095   178   5708.1    0.000    1.663     85.2   1091.9   4531.1      0.0     2.67     2.40     0.00    0.000    0.000    0.000    0.000    0.000    0.000    0.000    0.000    0.000    0.000     6.69     6.47     6.48     6.41     6.41
 2004 096   179   5708.1    0.000    1.652     85.2   1091.7   4531.2      0.0     2.67     2.41     0.00    0.000    0.000    0.000    0.000    0.000    0.000    0.000    0.000    0.000    0.000     6.69     6.47     6.48     6.41     6.41
 2004 097   180   5708.1    0.000    1.641     85.1   1091.5   4531.4      0.0     2.68     2.42     0.00    0.000    0.000    0.000    0.000    0.000    0.000    0.000    0.000    0.000    0.000     6.69     6.47     6.48     6.41     6.41
 2004 098   181   5708.1    0.000    1.631     85.1   1091.4   4531.6      0.0     2.68     2.43     0.00    0.000    0.000    0.000    0.000    0.000    0.000    0.000    0.000    0.000    0.000     6.68     6.47     6.48     6.41     6.41
 2004 099   182   5708.1    0.000    1.754     85.1   1091.2   4531.8      0.0     2.69     2.44     0.00    0.000    0.000    0.000    0.000    0.000    0.000    0.000    0.000    0.000    0.000     6.68     6.47     6.48     6.41     6.41
 2004 100   183   5708.1    0.000    1.686     85.1   1091.0   4532.0      0.0     2.70     2.45     0.00    0.000    0.000    0.000    0.000    0.000    0.000    0.000    0.000    0.000    0.000     6.68     6.47     6.48     6.41     6.41
 2004 101   184   5708.1    0.000    1.843     85.1   1090.8   4532.1      0.0     2.70     2.46     0.00    0.000    0.000    0.000    0.000    0.000    0.000    0.000    0.000    0.000    0.000     6.68     6.47     6.48     6.41     6.41
 2004 102   185   5708.1    0.000    1.734     85.1   1090.7   4532.3      0.0     2.71     2.47     0.00    0.000    0.000    0.000    0.000    0.000    0.000    0.000    0.000    0.000    0.000     6.68     6.47     6.48     6.41     6.41
 2004 103   186   5708.1    0.000    1.675     85.1   1090.5   4532.5      0.0     2.71     2.48     0.00    0.000    0.000    0.000    0.000    0.000    0.000    0.000    0.000    0.000    0.000     6.68     6.47     6.48     6.41     6.41
 2004 104   187   5708.1    0.000    1.661     85.1   1090.3   4532.7      0.0     2.72     2.49     0.00    0.000    0.000    0.000    0.000    0.000    0.000    0.000    0.000    0.000    0.000     6.68     6.47     6.48     6.41     6.41
 2004 105   188   5708.1    0.000    2.102     85.1   1090.1   4532.9      0.0     2.72     2.50     0.00    0.000    0.000    0.000    0.000    0.000    0.000    0.000    0.000    0.000    0.000     6.68     6.47     6.48     6.41     6.41
 2004 106   189   5708.1    0.000    1.881     85.0   1090.0   4533.0      0.0     2.73     2.51     0.00    0.000    0.000    0.000    0.000    0.000    0.000    0.000    0.000    0.000    0.000     6.68     6.47     6.48     6.41     6.41
 2004 107   190   5708.1    0.000    1.779     85.0   1089.8   4533.2      0.0     2.74     2.52     0.00    0.000    0.000    0.000    0.000    0.000    0.000    0.000    0.000    0.000    0.000     6.68     6.47     6.48     6.41     6.41
 2004 108   191   5708.0    0.000    1.720     85.0   1089.6   4533.4      0.0     2.74     2.53     0.00    0.000    0.000    0.000    0.000    0.000    0.000    0.000    0.000    0.000    0.000     6.68     6.47     6.48     6.41     6.41
 2004 109   192   5708.0    0.000    1.707     85.0   1089.5   4533.6      0.0     2.75     2.55     0.00    0.000    0.000    0.000    0.000    0.000    0.000    0.000    0.000    0.000    0.000     6.68     6.47     6.48     6.41     6.41
 2004 110   193   5708.0    0.000    1.695     85.0   1089.3   4533.8      0.0     2.75     2.56     0.00    0.000    0.000    0.000    0.000    0.000    0.000    0.000    0.000    0.000    0.000     6.67     6.47     6.48     6.41     6.41
 2004 111   194   5708.0    0.000    1.850     85.0   1089.1   4533.9      0.0     2.76     2.57     0.00    0.000    0.000    0.000    0.000    0.000    0.000    0.000    0.000    0.000    0.000     6.67     6.47     6.48     6.41     6.41
 2004 112   195   5708.0    0.000    1.760     85.0   1088.9   4534.1      0.0     2.77     2.58     0.00    0.000    0.000    0.000    0.000    0.000    0.000    0.000    0.000    0.000    0.000     6.67     6.47     6.48     6.41     6.41
 2004 113   196   5708.0    0.000    1.915     85.0   1088.8   4534.3      0.0     2.77     2.59     0.00    0.000    0.000    0.000    0.000    0.000    0.000    0.000    0.000    0.000    0.000     6.67     6.47     6.48     6.41     6.41
 2004 114   197   5708.0    0.000    1.795     84.9   1088.6   4534.5      0.0     2.78     2.61     0.00    0.000    0.000    0.000    0.000    0.000    0.000    0.000    0.000    0.000    0.000     6.67     6.47     6.48     6.41     6.41
 2004 115   198   5708.0    0.000    1.770     84.9   1088.4   4534.7      0.0     2.78     2.62     0.00    0.000    0.000    0.000    0.000    0.000    0.000    0.000    0.000    0.000    0.000     6.67     6.47     6.48     6.40     6.41
 2004 116   199   5708.0    0.000    1.711     84.9   1088.2   4534.8      0.0     2.79     2.63     0.00    0.000    0.000    0.000    0.000    0.000    0.000    0.000    0.000    0.000    0.000     6.67     6.47     6.48     6.40     6.40
 2004 117   200   5708.0    0.000    1.725     84.9   1088.1   4535.0      0.0     2.79     2.64     0.00    0.000    0.000    0.000    0.000    0.000    0.000    0.000    0.000    0.000    0.000     6.67     6.47     6.48     6.40     6.40
 2004 118   201   5708.0    0.000    1.710     84.9   1087.9   4535.2      0.0     2.80     2.65     0.00    0.000    0.000    0.000    0.000    0.000    0.000    0.000    0.000    0.000    0.000     6.66     6.47     6.48     6.40     6.40
 2004 119   202   5708.0    0.000    1.696     84.9   1087.7   4535.4      0.0     2.80     2.67     0.00    0.000    0.000    0.000    0.000    0.000    0.000    0.000    0.000    0.000    0.000     6.66     6.47     6.48     6.40     6.40
 2004 120   203   5708.0    0.000    2.070     84.9   1087.6   4535.5      0.0     2.81     2.68     0.00    0.000    0.000    0.000    0.000    0.000    0.000    0.000    0.000    0.000    0.000     6.66     6.47     6.48     6.40     6.40
 2004 121   204   5708.0    0.000    1.851     84.9   1087.4   4535.7      0.0     2.81     2.69     0.00    0.000    0.000    0.000    0.000    0.000    0.000    0.000    0.000    0.000    0.000     6.66     6.47     6.48     6.40     6.40
 2004 122   205   5708.0    0.000    1.765     84.8   1087.2   4535.9      0.0     2.82     2.70     0.00    0.000    0.000    0.000    0.000    0.000    0.000    0.000    0.000    0.000    0.000     6.66     6.47     6.48     6.40     6.40
 2004 123   206   5707.9    0.000    1.708     84.8   1087.0   4536.1      0.0     2.82     2.71     0.00    0.000    0.000    0.000    0.000    0.000    0.000    0.000    0.000    0.000    0.000     6.66     6.47     6.48     6.40     6.40
 2004 124   207   5707.9    0.000    1.695     84.8   1086.9   4536.3      0.0     2.83     2.72     0.00    0.000    0.000    0.000    0.000    0.000    0.000    0.000    0.000    0.000    0.000     6.66     6.47     6.48     6.40     6.40
 2004 125   208   5707.9    0.000    1.805     84.8   1086.7   4536.4      0.0     2.83     2.73     0.00    0.000    0.000    0.000    0.000    0.000    0.000    0.000    0.000    0.000    0.000     6.66     6.47     6.48     6.40     6.40
 2004 126   209   5707.9    0.000    1.768     84.8   1086.5   4536.6      0.0     2.83     2.75     0.00    0.000    0.000    0.000    0.000    0.000    0.000    0.000    0.000    0.000    0.000     6.65     6.47     6.48     6.40     6.40
 2004 127   210   5707.9    0.000    1.708     84.8   1086.3   4536.8      0.0     2.84     2.76     0.00    0.000    0.000    0.000    0.000    0.000    0.000    0.000    0.000    0.000    0.000     6.65     6.47     6.48     6.40     6.40
 2004 128   211   5707.9    0.000    1.693     84.8   1086.2   4537.0      0.0     2.84     2.77     0.00    0.000    0.000    0.000    0.000    0.000    0.000    0.000    0.000    0.000    0.000     6.65     6.47     6.48     6.40     6.40
 2004 129   212   5707.9    0.000    1.680     84.8   1086.0   4537.1      0.0     2.85     2.78     0.00    0.000    0.000    0.000    0.000    0.000    0.000    0.000    0.000    0.000    0.000     6.65     6.47     6.48     6.40     6.40
 2004 130   213   5707.9    0.000    1.668     84.7   1085.8   4537.3      0.0     2.85     2.79     0.00    0.000    0.000    0.000    0.000    0.000    0.000    0.000    0.000    0.000    0.000     6.65     6.47     6.48     6.40     6.40
 2004 131   214   5707.9    0.000    1.657     84.7   1085.7   4537.5      0.0     2.86     2.80     0.00    0.000    0.000    0.000    0.000    0.000    0.000    0.000    0.000    0.000    0.000     6.65     6.47     6.48     6.40     6.40
 2004 132   215   5707.9    0.000    1.793     84.7   1085.5   4537.7      0.0     2.86     2.81     0.00    0.000    0.000    0.000    0.000    0.000    0.000    0.000    0.000    0.000    0.000     6.65     6.47     6.48     6.40     6.40
 2004 133   216   5707.9    0.000    1.717     84.7   1085.3   4537.9      0.0     2.86     2.82     0.00    0.000    0.000    0.000    0.000    0.000    0.000    0.000    0.000    0.000    0.000     6.65     6.47     6.48     6.40     6.40
 2004 134   217   5707.9    0.000    1.702     84.7   1085.1   4538.0      0.0     2.87     2.83     0.00    0.000    0.000    0.000    0.000    0.000    0.000    0.000    0.000    0.000    0.000     6.65     6.47     6.48     6.40     6.40
 2004 135   218   5707.9    0.000    1.872     84.7   1085.0   4538.2      0.0     2.87     2.84     0.00    0.000    0.000    0.000    0.000    0.000    0.000    0.000    0.000    0.000    0.000     6.64     6.47     6.48     6.40     6.40
 2004 136   219   5707.9    0.000    1.841     84.7   1084.8   4538.4      0.0     2.88     2.85     0.00    0.000    0.000    0.000    0.000    0.000    0.000    0.000    0.000    0.000    0.000     6.64     6.47     6.48     6.40     6.40
 2004 137   220   5707.9    0.000    1.742     84.7   1084.6   4538.6      0.0     2.88     2.86     0.00    0.000    0.000    0.000    0.000    0.000    0.000    0.000    0.000    0.000    0.000     6.64     6.47     6.48     6.40     6.40
 2004 138   221   5707.9    0.000    1.684     84.7   1084.5   4538.7      0.0     2.88     2.87     0.00    0.000    0.000    0.000    0.000    0.000    0.000    0.000    0.000    0.000    0.000     6.64     6.47     6.48     6.39     6.40
 2004 139   222   5707.8    0.000    1.670     84.6   1084.3   4538.9      0.0     2.89     2.88     0.00    0.000    0.000    0.000    0.000    0.000    0.000    0.000    0.000    0.000    0.000     6.64     6.47     6.48     6.39     6.39
 2004 140   223   5707.8    0.000    2.185     84.6   1084.1   4539.1      0.0     2.89     2.89     0.00    0.000    0.000    0.000    0.000    0.000    0.000    0.000    0.000    0.000    0.000     6.64     6.47     6.48     6.39     6.39
 2004 141   224   5707.8    0.000    1.899     84.6   1083.9   4539.3      0.0     2.89     2.89     0.00    0.000    0.000    0.000    0.000    0.000    0.000    0.000    0.000    0.000    0.000     6.64     6.47     6.48     6.39     6.39
 2004 142   225   5707.8    0.000    1.780     84.6   1083.8   4539.4      0.0     2.90     2.91     0.00    0.000    0.000    0.000    0.000    0.000    0.000    0.000    0.000    0.000    0.000     6.64     6.47     6.48     6.39     6.39
 2004 143   226   5707.8    0.000    1.721     84.6   1083.6   4539.6      0.0     2.90     2.92     0.00    0.000    0.000    0.000    0.000    0.000    0.000    0.000    0.000    0.000    0.000     6.64     6.47     6.48     6.39     6.39
 2004 144   227   5707.8    0.000    1.831     84.6   1083.4   4539.8      0.0     2.91     2.93     0.00    0.000    0.000    0.000    0.000    0.000    0.000    0.000    0.000    0.000    0.000     6.64     6.47     6.48     6.39     6.39
 2004 145   228   5707.8    0.000    1.748     84.6   1083.3   4540.0      0.0     2.91     2.94     0.00    0.000    0.000    0.000    0.000    0.000    0.000    0.000    0.000    0.000    0.000     6.64     6.47     6.48     6.39     6.39
 2004 146   229   5707.8    0.000    1.732     84.6   1083.1   4540.1      0.0     2.91     2.95     0.00    0.000    0.000    0.000    0.000    0.000    0.000    0.000    0.000    0.000    0.000     6.63     6.47     6.48     6.39     6.39
 2004 147   230   5707.8    0.000    2.264     84.6   1082.9   4540.3      0.0     2.92     2.96     0.00    0.000    0.000    0.000    0.000    0.000    0.000    0.000    0.000    0.000    0.000     6.63     6.47     6.48     6.39     6.39
 2004 148   231   5707.8    0.000    1.917     84.5   1082.8   4540.5      0.0     2.92     2.97     0.00    0.000    0.000    0.000    0.000    0.000    0.000    0.000    0.000    0.000    0.000     6.63     6.47     6.48     6.39     6.39
 2004 149   232   5707.8    0.000    1.948     84.5   1082.6   4540.7      0.0     2.93     2.98     0.00    0.000    0.000    0.000    0.000    0.000    0.000    0.000    0.000    0.000    0.000     6.63     6.47     6.48     6.39     6.39
 2004 150   233   5707.8    0.000    1.992     84.5   1082.4   4540.8      0.0     2.93     2.99     0.00    0.000    0.000    0.000    0.000    0.000    0.000    0.000    0.000    0.000    0.000     6.63     6.47     6.48     6.39     6.39
 2004 151   234   5707.8    0.000    1.812     84.5   1082.2   4541.0      0.0     2.93     3.00     0.00    0.000    0.000    0.000    0.000    0.000    0.000    0.000    0.000    0.000    0.000     6.63     6.47     6.48     6.39     6.39
 2004 152   235   5707.8    0.000    1.746     84.5   1082.1   4541.2      0.0     2.94     3.01     0.00    0.000    0.000    0.000    0.000    0.000    0.000    0.000    0.000    0.000    0.000     6.63     6.47     6.48     6.39     6.39
 2004 153   236   5707.8    0.000    1.753     84.5   1081.9   4541.4      0.0     2.94     3.02     0.00    0.000    0.000    0.000    0.000    0.000    0.000    0.000    0.000    0.000    0.000     6.63     6.47     6.48     6.39     6.39
 2004 154   237   5707.8    0.000    1.953     84.5   1081.7   4541.5      0.0     2.95     3.03     0.00    0.000    0.000    0.000    0.000    0.000    0.000    0.000    0.000    0.000    0.000     6.63     6.47     6.48     6.39     6.39
 2004 155   238   5707.7    0.000    1.803     84.5   1081.6   4541.7      0.0     2.95     3.04     0.00    0.000    0.000    0.000    0.000    0.000    0.000    0.000    0.000    0.000    0.000     6.63     6.47     6.48     6.39     6.39
 2004 156   239   5707.7    0.000    1.737     84.5   1081.4   4541.9      0.0     2.95     3.05     0.00    0.000    0.000    0.000    0.000    0.000    0.000    0.000    0.000    0.000    0.000     6.63     6.47     6.48     6.39     6.39
 2004 157   240   5707.7    0.000    1.722     84.4   1081.2   4542.1      0.0     2.96     3.06     0.00    0.000    0.000    0.000    0.000    0.000    0.000    0.000    0.000    0.000    0.000     6.63     6.47     6.48     6.39     6.39
 2004 158   241   5707.7    0.000    1.709     84.4   1081.1   4542.2      0.0     2.96     3.07     0.00    0.000    0.000    0.000    0.000    0.000    0.000    0.000    0.000    0.000    0.000     6.63     6.47     6.48     6.39     6.39
 2004 159   242   5707.7    0.000    1.703     84.4   1080.9   4542.4      0.0     2.96     3.08     0.00    0.000    0.000    0.000    0.000    0.000    0.000    0.000    0.000    0.000    0.000     6.63     6.47     6.48     6.39     6.39
 2004 160   243   5707.7    0.000    1.691     84.4   1080.7   4542.6      0.0     2.97     3.09     0.00    0.000    0.000    0.000    0.000    0.000    0.000    0.000    0.000    0.000    0.000     6.63     6.47     6.48     6.39     6.39
 2004 161   244   5707.7    0.000    1.679     84.4   1080.6   4542.7      0.0     2.97     3.10     0.00    0.000    0.000    0.000    0.000    0.000    0.000    0.000    0.000    0.000    0.000     6.63     6.47     6.48     6.39     6.39
 2004 162   245   5707.7    0.000    1.669     84.4   1080.4   4542.9      0.0     2.97     3.11     0.00    0.000    0.000    0.000    0.000    0.000    0.000    0.000    0.000    0.000    0.000     6.63     6.47     6.48     6.38     6.38
 2004 163   246   5707.7    0.000    1.790     84.4   1080.2   4543.1      0.0     2.98     3.12     0.00    0.000    0.000    0.000    0.000    0.000    0.000    0.000    0.000    0.000    0.000     6.63     6.47     6.48     6.38     6.38
 2004 164   247   5707.7    0.000    1.849     84.4   1080.1   4543.3      0.0     2.98     3.13     0.00    0.000    0.000    0.000    0.000    0.000    0.000    0.000    0.000    0.000    0.000     6.62     6.47     6.48     6.38     6.38
 2004 165   248   5707.7    0.000    1.775     84.4   1079.9   4543.4      0.0     2.99     3.14     0.00    0.000    0.000    0.000    0.000    0.000    0.000    0.000    0.000    0.000    0.000     6.62     6.47     6.48     6.38     6.38
 2004 166   249   5707.7    0.000    2.347     84.3   1079.7   4543.6      0.0     2.99     3.15     0.00    0.000    0.000    0.000    0.000    0.000    0.000    0.000    0.000    0.000    0.000     6.62     6.47     6.48     6.38     6.38
 2004 167   250   5707.7    0.000    2.176     84.3   1079.6   4543.8      0.0     2.99     3.16     0.00    0.000    0.000    0.000    0.000    0.000    0.000    0.000    0.000    0.000    0.000     6.62     6.47     6.48     6.38     6.38
 2004 168   251   5707.7    0.000    1.881     84.3   1079.4   4544.0      0.0     3.00     3.17     0.00    0.000    0.000    0.000    0.000    0.000    0.000    0.000    0.000    0.000    0.000     6.62     6.47     6.48     6.38     6.38
 2004 169   252   5707.7    0.000    1.901     84.3   1079.2   4544.1      0.0     3.00     3.18     0.00    0.000    0.000    0.000    0.000    0.000    0.000    0.000    0.000    0.000    0.000     6.62     6.47     6.48     6.38     6.38
 2004 170   253   5707.7    0.000    1.778     84.3   1079.0   4544.3      0.0     3.00     3.19     0.00    0.000    0.000    0.000    0.000    0.000    0.000    0.000    0.000    0.000    0.000     6.62     6.47     6.48     6.38     6.38
 2004 171   254   5707.6    0.000    1.719     84.3   1078.9   4544.5      0.0     3.01     3.20     0.00    0.000    0.000    0.000    0.000    0.000    0.000    0.000    0.000    0.000    0.000     6.62     6.47     6.48     6.38     6.38
 2004 172   255   5707.6    0.000    1.869     84.3   1078.7   4544.6      0.0     3.01     3.21     0.00    0.000    0.000    0.000    0.000    0.000    0.000    0.000    0.000    0.000    0.000     6.62     6.47     6.48     6.38     6.38
 2004 173   256   5707.6    0.000    1.799     84.3   1078.5   4544.8      0.0     3.01     3.22     0.00    0.000    0.000    0.000    0.000    0.000    0.000    0.000    0.000    0.000    0.000     6.62     6.47     6.48     6.38     6.38
 2004 174   257   5707.6    0.000    1.732     84.3   1078.4   4545.0      0.0     3.02     3.23     0.00    0.000    0.000    0.000    0.000    0.000    0.000    0.000    0.000    0.000    0.000     6.62     6.47     6.48     6.38     6.38
 2004 175   258   5707.6    0.000    1.717     84.3   1078.2   4545.2      0.0     3.02     3.24     0.00    0.000    0.000    0.000    0.000    0.000    0.000    0.000    0.000    0.000    0.000     6.62     6.47     6.48     6.38     6.38
 2004 176   259   5707.6    0.008    1.703     84.2   1078.0   4545.3      0.0     3.03     3.25     0.00    0.002    0.004    0.002    0.000    0.000    0.000    0.000    0.000    0.000    0.000     6.62     6.47     6.47     6.38     6.38
 2004 177   260   5707.6    0.021    1.690     84.2   1077.9   4545.5      0.0     3.03     3.26     0.00    0.007    0.009    0.004    0.000    0.000    0.000    0.000    0.000    0.000    0.000     6.62     6.47     6.47     6.38     6.38
 2004 178   261   5707.6    0.030    1.862     84.2   1077.7   4545.7      0.0     3.03     3.27     0.00    0.014    0.010    0.005    0.000    0.000    0.000    0.000    0.000    0.000    0.000     6.62     6.47     6.47     6.38     6.38
 2004 179   262   5707.6    0.036    1.983     84.2   1077.5   4545.8      0.0     3.04     3.28     0.04    0.017    0.012    0.007    0.000    0.000    0.017    0.012    0.007    0.000    0.000     6.62     6.47     6.47     6.38     6.38
 2004 180   263   5707.6    0.028    1.808     84.2   1077.4   4546.0      0.0     3.04     3.29     0.07    0.011    0.010    0.006    0.001    0.000    0.011    0.010    0.006    0.001    0.000     6.60     6.46     6.47     6.38     6.38
 2004 181   264   5707.5    0.029    1.735     84.1   1077.2   4546.2      0.0     3.04     3.30     0.09    0.010    0.011    0.007    0.001    0.000    0.010    0.011    0.007    0.001    0.000     6.58     6.45     6.46     6.38     6.38
 2004 182   265   5707.5    0.047    2.255     84.1   1077.0   4546.4      0.0     3.05     3.31     0.14    0.017    0.017    0.011    0.002    0.000    0.017    0.017    0.011    0.002    0.000     6.57     6.44     6.45     6.37     6.38
 2004 183   266   5707.4    0.037    1.896     84.0   1076.9   4546.5      0.0     3.05     3.32     0.18    0.012    0.013    0.009    0.003    0.000    0.012    0.013    0.009    0.003    0.000     6.55     6.43     6.44     6.37     6.38
 2004 184   267   5707.4    0.033    1.765     84.0   1076.7   4546.7      0.0     3.05     3.33     0.21    0.010    0.011    0.009    0.004    0.000    0.010    0.011    0.009    0.004    0.000     6.54     6.43     6.43     6.37     6.38
 2004 185   268   5707.3    0.055    2.158     84.0   1076.5   4546.9      0.0     3.06     3.34     0.27    0.017    0.015    0.014    0.008    0.001    0.017    0.015    0.014    0.008    0.001     6.53     6.42     6.42     6.37     6.37
 2004 186   269   5707.3    0.049    2.002     83.9   1076.4   4547.0      0.0     3.06     3.35     0.31    0.012    0.012    0.013    0.009    0.003    0.012    0.012    0.013    0.009    0.003     6.51     6.41     6.40     6.36     6.37
 2004 187   270   5707.2    0.060    2.346     83.9   1076.2   4547.2      0.0     3.06     3.36     0.37    0.015    0.016    0.014    0.011    0.004    0.015    0.016    0.014    0.011    0.004     6.50     6.41     6.39     6.36     6.37
 2004 188   271   5707.2    0.060    2.248     83.8   1076.0   4547.4      0.0     3.07     3.36     0.43    0.014    0.014    0.013    0.012    0.008    0.014    0.014    0.013    0.012    0.008     6.48     6.40     6.38     6.35     6.37
 2004 189   272   5707.1    0.053    2.058     83.7   1075.8   4547.5      0.0     3.07     3.37     0.49    0.010    0.011    0.012    0.010    0.009    0.010    0.011    0.012    0.010    0.009     6.47     6.39     6.36     6.34     6.36
 2004 190   273   5707.0    0.052    1.977     83.7   1075.6   4547.7      0.0     3.07     3.38     0.54    0.010    0.010    0.010    0.010    0.011    0.010    0.010    0.010    0.010    0.011     6.46     6.39     6.35     6.34     6.36
 2004 191   274   5707.0    0.059    2.062     83.6   1075.5   4547.9      0.0     3.08     3.39     0.60    0.013    0.011    0.010    0.009    0.012    0.013    0.011    0.010    0.009    0.012     6.45     6.39     6.34     6.33     6.35
 2004 192   275   5706.9    0.062    2.170     83.6   1075.3   4548.1      0.0     3.08     3.40     0.66    0.013    0.012    0.011    0.009    0.012    0.013    0.012    0.011    0.009    0.012     6.44     6.38     6.33     6.33     6.34
 2004 193   276   5706.9    0.057    2.041     83.5   1075.1   4548.2      0.0     3.08     3.41     0.72    0.010    0.010    0.010    0.009    0.012    0.010    0.010    0.010    0.009    0.012     6.43     6.38     6.33     6.32     6.34
 2004 194   277   5706.8    0.049    1.810     83.5   1074.9   4548.4      0.0     3.09     3.42     0.77    0.008    0.009    0.008    0.008    0.011    0.008    0.009    0.008    0.008    0.011     6.43     6.37     6.32     6.32     6.33
 2004 195   278   5706.7    0.061    2.197     83.5   1074.7   4548.6      0.0     3.09     3.43     0.83    0.012    0.012    0.010    0.009    0.011    0.012    0.012    0.010    0.009    0.011     6.42     6.37     6.31     6.32     6.33
 2004 196   279   5706.7    0.050    1.892     83.4   1074.5   4548.7      0.0     3.09     3.44     0.88    0.008    0.009    0.008    0.008    0.010    0.008    0.009    0.008    0.008    0.010     6.41     6.37     6.31     6.31     6.32
 2004 197   280   5706.6    0.046    1.742     83.4   1074.3   4548.9      0.0     3.10     3.45     0.92    0.007    0.008    0.007    0.007    0.010    0.007    0.008    0.007    0.007    0.010     6.41     6.36     6.30     6.31     6.32
 2004 198   281   5706.6    0.043    1.665     83.3   1074.2   4549.1      0.0     3.10     3.46     0.96    0.006    0.007    0.006    0.007    0.009    0.006    0.007    0.006    0.007    0.009     6.41     6.36     6.30     6.31     6.31
 2004 199   282   5706.5    0.053    1.993     83.3   1074.0   4549.2      0.0     3.10     3.47     1.02    0.012    0.009    0.008    0.008    0.009    0.012    0.009    0.008    0.008    0.009     6.41     6.36     6.30     6.31     6.31
 2004 200   283   5706.5    0.045    1.785     83.3   1073.8   4549.4      0.0     3.11     3.47     1.06    0.008    0.008    0.006    0.007    0.009    0.008    0.008    0.006    0.007    0.009     6.40     6.36     6.29     6.30     6.30
 2004 201   284   5706.4    0.042    1.686     83.3   1073.6   4549.6      0.0     3.11     3.48     1.10    0.006    0.007    0.006    0.007    0.009    0.006    0.007    0.006    0.007    0.009     6.40     6.36     6.29     6.30     6.30
 2004 202   285   5706.4    0.041    1.654     83.2   1073.4   4549.7      0.0     3.11     3.49     1.14    0.006    0.007    0.006    0.007    0.009    0.006    0.007    0.006    0.007    0.009     6.40     6.35     6.29     6.30     6.30
 2004 203   286   5706.3    0.051    1.999     83.2   1073.2   4549.9      0.0     3.12     3.50     1.20    0.011    0.009    0.008    0.007    0.009    0.011    0.009    0.008    0.007    0.009     6.40     6.35     6.29     6.30     6.29
 2004 204   287   5706.2    0.043    1.774     83.2   1073.0   4550.1      0.0     3.12     3.51     1.24    0.007    0.008    0.006    0.007    0.009    0.007    0.008    0.006    0.007    0.009     6.39     6.35     6.29     6.30     6.29
 2004 205   288   5706.2    0.040    1.683     83.2   1072.8   4550.2      0.0     3.12     3.52     1.28    0.006    0.007    0.006    0.007    0.008    0.006    0.007    0.006    0.007    0.008     6.39     6.35     6.28     6.29     6.29
 2004 206   289   5706.2    0.039    1.655     83.1   1072.6   4550.4      0.0     3.13     3.53     1.32    0.005    0.007    0.006    0.007    0.008    0.005    0.007    0.006    0.007    0.008     6.39     6.35     6.28     6.29     6.29
 2004 207   290   5706.1    0.038    1.625     83.1   1072.4   4550.6      0.0     3.13     3.54     1.36    0.005    0.007    0.005    0.007    0.008    0.005    0.007    0.005    0.007    0.008     6.39     6.35     6.28     6.29     6.28
 2004 208   291   5706.1    0.037    1.598     83.1   1072.2   4550.7      0.0     3.13     3.55     1.39    0.005    0.006    0.005    0.006    0.008    0.005    0.006    0.005    0.006    0.008     6.39     6.35     6.28     6.29     6.28
 2004 209   292   5706.0    0.044    1.834     83.1   1072.0   4550.9      0.0     3.14     3.56     1.44    0.010    0.008    0.006    0.007    0.008    0.010    0.008    0.006    0.007    0.008     6.39     6.35     6.28     6.29     6.28
 2004 210   293   5706.0    0.043    1.797     83.1   1071.8   4551.1      0.0     3.14     3.57     1.48    0.008    0.008    0.006    0.007    0.008    0.008    0.008    0.006    0.007    0.008     6.38     6.35     6.28     6.29     6.28
 2004 211   294   5705.9    0.039    1.693     83.0   1071.6   4551.2      0.0     3.14     3.58     1.52    0.006    0.007    0.006    0.007    0.008    0.006    0.007    0.006    0.007    0.008     6.38     6.35     6.28     6.28     6.28
 2004 212   295   5705.9    0.040    1.702     83.0   1071.4   4551.4      0.0     3.15     3.59     1.56    0.007    0.007    0.006    0.006    0.008    0.007    0.007    0.006    0.006    0.008     6.38     6.35     6.28     6.28     6.27
 2004 213   296   5705.8    0.041    1.743     83.0   1071.3   4551.6      0.0     3.15     3.60     1.60    0.008    0.007    0.006    0.006    0.008    0.008    0.007    0.006    0.006    0.008     6.38     6.34     6.28     6.28     6.27
 2004 214   297   5705.8    0.038    1.655     83.0   1071.1   4551.7      0.0     3.15     3.60     1.64    0.006    0.007    0.005    0.006    0.008    0.006    0.007    0.005    0.006    0.008     6.37     6.34     6.27     6.28     6.27
 2004 215   298   5705.7    0.045    1.902     83.0   1070.9   4551.9      0.0     3.15     3.61     1.68    0.010    0.008    0.007    0.007    0.008    0.010    0.008    0.007    0.007    0.008     6.37     6.34     6.27     6.28     6.27
 2004 216   299   5705.7    0.044    1.865     82.9   1070.7   4552.1      0.0     3.16     3.62     1.73    0.008    0.008    0.007    0.007    0.008    0.008    0.008    0.007    0.007    0.008     6.37     6.34     6.27     6.28     6.27
 2004 217   300   5705.6    0.054    2.284     82.9   1070.5   4552.2      0.0     3.16     3.63     1.78    0.010    0.010    0.008    0.009    0.010    0.010    0.010    0.008    0.009    0.010     6.37     6.34     6.27     6.28     6.27
 2004 218   301   5705.6    0.051    2.206     82.9   1070.3   4552.4      0.0     3.16     3.64     1.83    0.009    0.009    0.008    0.008    0.010    0.009    0.009    0.008    0.008    0.010     6.36     6.34     6.26     6.27     6.26
 2004 219   302   5705.5    0.045    2.013     82.9   1070.1   4552.6      0.0     3.17     3.65     1.88    0.007    0.007    0.007    0.008    0.010    0.007    0.007    0.007    0.008    0.010     6.36     6.34     6.26     6.27     6.26
 2004 220   303   5705.5    0.041    1.876     82.8   1069.9   4552.7      0.0     3.17     3.66     1.92    0.006    0.007    0.006    0.007    0.009    0.006    0.007    0.006    0.007    0.009     6.36     6.33     6.26     6.27     6.26
 2004 221   304   5705.4    0.051    2.294     82.8   1069.7   4552.9      0.0     3.17     3.66     1.97    0.009    0.010    0.008    0.008    0.009    0.009    0.010    0.008    0.008    0.009     6.36     6.33     6.26     6.27     6.26
 2004 222   305   5705.4    0.040    1.923     82.8   1069.5   4553.1      0.0     3.18     3.67     2.01    0.006    0.007    0.006    0.007    0.008    0.006    0.007    0.006    0.007    0.008     6.35     6.33     6.25     6.27     6.25
 2004 223   306   5705.3    0.037    1.773     82.8   1069.3   4553.2      0.0     3.18     3.68     2.04    0.005    0.006    0.005    0.006    0.008    0.005    0.006    0.005    0.006    0.008     6.35     6.33     6.25     6.27     6.25
 2004 224   307   5705.3    0.040    1.877     82.8   1069.1   4553.4      0.0     3.18     3.69     2.08    0.008    0.007    0.006    0.006    0.008    0.008    0.007    0.006    0.006    0.008     6.35     6.33     6.25     6.26     6.25
 2004 225   308   5705.2    0.036    1.731     82.8   1068.9   4553.6      0.0     3.19     3.70     2.12    0.006    0.006    0.005    0.006    0.008    0.006    0.006    0.005    0.006    0.008     6.35     6.33     6.25     6.26     6.25
 2004 226   309   5705.2    0.050    2.306     82.7   1068.7   4553.7      0.0     3.19     3.71     2.17    0.009    0.009    0.008    0.008    0.010    0.009    0.009    0.008    0.008    0.010     6.35     6.33     6.25     6.26     6.25
 2004 227   310   5705.1    0.041    1.966     82.7   1068.5   4553.9      0.0     3.19     3.72     2.21    0.006    0.007    0.006    0.007    0.008    0.006    0.007    0.006    0.007    0.008     6.35     6.33     6.25     6.26     6.25
 2004 228   311   5705.1    0.048    2.264     82.7   1068.3   4554.1      0.0     3.20     3.72     2.26    0.008    0.009    0.007    0.008    0.009    0.008    0.009    0.007    0.008    0.009     6.35     6.33     6.25     6.26     6.25
 2004 229   312   5705.0    0.038    1.902     82.7   1068.1   4554.2      0.0     3.20     3.73     2.30    0.006    0.007    0.006    0.006    0.008    0.006    0.007    0.006    0.006    0.008     6.35     6.33     6.25     6.26     6.24
 2004 230   313   5705.0    0.035    1.751     82.7   1067.9   4554.4      0.0     3.20     3.74     2.33    0.005    0.006    0.005    0.006    0.007    0.005    0.006    0.005    0.006    0.007     6.35     6.33     6.25     6.26     6.24
 2004 231   314   5705.0    0.034    1.678     82.7   1067.7   4554.6      0.0     3.20     3.75     2.37    0.004    0.006    0.005    0.006    0.007    0.004    0.006    0.005    0.006    0.007     6.35     6.33     6.25     6.26     6.24
 2004 232   315   5704.9    0.035    1.729     82.7   1067.5   4554.7      0.0     3.21     3.76     2.40    0.006    0.006    0.005    0.006    0.007    0.006    0.006    0.005    0.006    0.007     6.35     6.33     6.25     6.26     6.24
 2004 233   316   5704.9    0.034    1.665     82.6   1067.3   4554.9      0.0     3.21     3.77     2.44    0.005    0.006    0.004    0.006    0.007    0.005    0.006    0.004    0.006    0.007     6.35     6.33     6.25     6.26     6.24
 2004 234   317   5704.8    0.032    1.614     82.6   1067.2   4555.0      0.0     3.21     3.78     2.47    0.005    0.005    0.004    0.005    0.007    0.005    0.005    0.004    0.005    0.007     6.35     6.33     6.25     6.26     6.24
 2004 235   318   5704.8    0.050    2.337     82.6   1067.0   4555.2      0.0     3.22     3.79     2.52    0.009    0.009    0.008    0.008    0.010    0.009    0.009    0.008    0.008    0.010     6.35     6.33     6.25     6.26     6.24
 2004 236   319   5704.7    0.046    2.172     82.6   1066.8   4555.4      0.0     3.22     3.79     2.56    0.007    0.008    0.007    0.008    0.009    0.007    0.008    0.007    0.008    0.009     6.35     6.32     6.25     6.25     6.24
 2004 237   320   5704.7    0.037    1.848     82.6   1066.6   4555.5      0.0     3.22     3.80     2.60    0.005    0.006    0.005    0.006    0.008    0.005    0.006    0.005    0.006    0.008     6.34     6.32     6.24     6.25     6.24
 2004 238   321   5704.7    0.042    2.020     82.6   1066.4   4555.7      0.0     3.23     3.81     2.64    0.008    0.007    0.006    0.006    0.008    0.008    0.007    0.006    0.006    0.008     6.34     6.32     6.24     6.25     6.23
 2004 239   322   5704.6    0.039    1.934     82.6   1066.2   4555.9      0.0     3.23     3.82     2.68    0.007    0.006    0.006    0.006    0.008    0.007    0.006    0.006    0.006    0.008     6.34     6.32     6.24     6.25     6.23
 2004 240   323   5704.6    0.035    1.753     82.5   1066.0   4556.0      0.0     3.23     3.83     2.72    0.005    0.006    0.005    0.006    0.007    0.005    0.006    0.005    0.006    0.007     6.34     6.32     6.24     6.25     6.23
 2004 241   324   5704.5    0.035    1.753     82.5   1065.8   4556.2      0.0     3.24     3.84     2.75    0.006    0.006    0.005    0.006    0.007    0.006    0.006    0.005    0.006    0.007     6.34     6.32     6.24     6.25     6.23
 2004 242   325   5704.5    0.035    1.767     82.5   1065.6   4556.4      0.0     3.24     3.85     2.79    0.006    0.006    0.005    0.006    0.007    0.006    0.006    0.005    0.006    0.007     6.34     6.32     6.24     6.25     6.23
[...]
 2004 213   296   5721.8    0.520    1.707     83.1   1099.7   4538.9     39.0    10.07     5.26    13.40    0.147    0.227    0.060    0.041    0.027    0.147    0.227    0.060    0.041    0.027    10.12     5.90     5.13     5.93     6.02
 2004 214   297   5721.2    0.434    1.546     82.8   1099.3   4539.1     39.0    10.07     5.27    13.83    0.112    0.188    0.049    0.041    0.027    0.112    0.188    0.049    0.041    0.027     9.98     5.80     5.09     5.92     6.01
 2004 215   298   5720.8    0.588    1.840     82.6   1098.9   4539.3     39.0    10.07     5.28    14.42    0.160    0.273    0.070    0.042    0.026    0.160    0.273    0.070    0.042    0.026     9.89     5.74     5.06     5.90     6.00
 2004 216   299   5720.2    0.548    1.773     82.2   1098.5   4539.5     39.0    10.08     5.30    14.97    0.144    0.233    0.068    0.062    0.026    0.144    0.233    0.068    0.062    0.026     9.75     5.62     5.01     5.89     6.00
 2004 217   300   5719.6    0.780    2.211     81.9   1098.1   4539.6     39.0    10.08     5.31    15.75    0.161    0.363    0.105    0.098    0.035    0.161    0.363    0.105    0.098    0.035     9.63     5.53     4.96     5.87     5.99
 2004 218   301   5718.8    0.779    2.158     81.3   1097.7   4539.8     39.0    10.09     5.33    16.52    0.154    0.296    0.100    0.167    0.043    0.154    0.296    0.100    0.167    0.043     9.49     5.37     4.86     5.82     5.98
 2004 219   302   5718.1    0.668    1.960     80.8   1097.3   4540.0     39.0    10.09     5.34    17.19    0.115    0.250    0.087    0.155    0.042    0.115    0.250    0.087    0.155    0.042     9.36     5.25     4.78     5.73     5.96
 2004 220   303   5717.4    0.596    1.815     80.4   1096.8   4540.2     39.0    10.10     5.35    17.79    0.101    0.216    0.072    0.139    0.049    0.101    0.216    0.072    0.139    0.049     9.29     5.16     4.71     5.66     5.94
 2004 221   304   5716.8    0.795    2.205     80.1   1096.3   4540.3     39.0    10.10     5.37    18.19    0.142    0.328    0.093    0.162    0.051    0.073    0.167    0.047    0.083    0.026     9.23     5.10     4.67     5.60     5.93
 2004 222   305   5716.4    0.616    1.854     80.0   1095.9   4540.5     39.0    10.11     5.38    18.33    0.104    0.239    0.068    0.134    0.047    0.022    0.051    0.015    0.029    0.010     9.22     5.07     4.66     5.57     5.92
 2004 223   306   5716.2    0.566    1.717     80.1   1095.4   4540.7     39.0    10.11     5.39    18.37    0.093    0.215    0.062    0.129    0.045    0.007    0.017    0.005    0.010    0.004     9.26     5.11     4.68     5.58     5.93
 2004 224   307   5716.2    0.630    1.856     80.3   1095.0   4540.9     39.0    10.12     5.41    18.37    0.129    0.233    0.068    0.132    0.046    0.001    0.001    0.000    0.001    0.000     9.33     5.17     4.72     5.60     5.94
 2004 225   308   5716.2    0.568    1.708     80.6   1094.5   4541.1     39.0    10.12     5.43    18.82    0.103    0.211    0.061    0.125    0.045    0.082    0.167    0.048    0.099    0.036     9.40     5.24     4.77     5.62     5.95
 2004 226   309   5715.7    0.816    2.233     80.4   1094.1   4541.2     39.0    10.13     5.44    19.64    0.144    0.325    0.093    0.169    0.061    0.144    0.325    0.093    0.169    0.061     9.36     5.21     4.75     5.58     5.93
 2004 227   310   5714.9    0.627    1.892     79.9   1093.6   4541.4     39.0    10.13     5.46    20.26    0.105    0.241    0.069    0.139    0.050    0.105    0.241    0.069    0.139    0.050     9.25     5.07     4.68     5.51     5.91
 2004 228   311   5714.2    0.764    2.155     79.5   1093.1   4541.6     39.0    10.14     5.47    21.03    0.136    0.307    0.088    0.157    0.053    0.136    0.307    0.088    0.157    0.053     9.19     4.99     4.63     5.45     5.89
 2004 229   312   5713.5    0.578    1.801     79.1   1092.6   4541.8     39.0    10.14     5.48    21.61    0.097    0.221    0.064    0.129    0.045    0.097    0.221    0.064    0.129    0.045     9.09     4.88     4.57     5.38     5.87
 2004 230   313   5712.9    0.515    1.654     78.8   1092.1   4541.9     39.0    10.14     5.50    22.12    0.083    0.193    0.056    0.119    0.043    0.083    0.193    0.056    0.119    0.043     9.04     4.82     4.54     5.34     5.86
 2004 231   314   5712.3    0.479    1.576     78.6   1091.6   4542.1     39.0    10.15     5.51    22.60    0.077    0.178    0.051    0.111    0.041    0.077    0.178    0.051    0.111    0.041     9.02     4.78     4.52     5.30     5.84
 2004 232   315   5711.9    0.485    1.609     78.5   1091.1   4542.3     39.0    10.15     5.53    23.09    0.095    0.177    0.050    0.104    0.039    0.095    0.177    0.050    0.104    0.039     9.00     4.75     4.50     5.27     5.83
 2004 233   316   5711.4    0.456    1.535     78.3   1090.6   4542.5     39.0    10.16     5.54    23.54    0.080    0.171    0.046    0.101    0.037    0.080    0.171    0.046    0.101    0.037     8.96     4.72     4.49     5.24     5.82
 2004 234   317   5710.9    0.430    1.485     78.2   1090.1   4542.6     39.0    10.16     5.55    23.97    0.075    0.156    0.044    0.099    0.037    0.075    0.156    0.044    0.099    0.037     8.94     4.69     4.48     5.22     5.82
 2004 235   318   5710.5    0.729    2.149     78.1   1089.6   4542.8     39.0    10.17     5.57    24.70    0.122    0.289    0.085    0.158    0.053    0.122    0.289    0.085    0.158    0.053     8.92     4.68     4.48     5.20     5.81
 2004 236   319   5709.7    0.637    1.994     77.7   1089.0   4543.0     39.0    10.17     5.58    25.34    0.105    0.232    0.082    0.145    0.051    0.105    0.232    0.082    0.145    0.051     8.85     4.58     4.42     5.14     5.79
 2004 237   320   5709.1    0.507    1.697     77.4   1088.5   4543.1     39.0    10.18     5.59    25.84    0.081    0.184    0.059    0.119    0.043    0.081    0.184    0.059    0.119    0.043     8.80     4.52     4.37     5.09     5.78
 2004 238   321   5708.6    0.566    1.866     77.3   1088.0   4543.3     39.0    10.18     5.61    26.41    0.116    0.205    0.064    0.118    0.042    0.116    0.205    0.064    0.118    0.042     8.78     4.50     4.35     5.06     5.77
 2004 239   322   5708.0    0.528    1.778     77.1   1087.4   4543.5     39.0    10.19     5.62    26.94    0.096    0.191    0.061    0.117    0.041    0.096    0.191    0.061    0.117    0.041     8.72     4.46     4.33     5.04     5.76
 2004 240   323   5707.5    0.461    1.590     76.9   1086.9   4543.7     39.0    10.19     5.63    27.36    0.076    0.165    0.050    0.108    0.038    0.070    0.153    0.046    0.100    0.035     8.68     4.43     4.30     5.01     5.75
 2004 241   324   5707.0    0.474    1.600     76.9   1086.3   4543.8     39.0    10.19     5.65    27.37    0.088    0.168    0.048    0.106    0.037    0.001    0.003    0.001    0.002    0.001     8.69     4.42     4.30     5.00     5.75
 2004 242   325   5707.0    0.506    1.619     77.2   1085.8   4544.0     39.0    10.20     5.66    27.40    0.111    0.172    0.049    0.106    0.036    0.006    0.010    0.003    0.006    0.002     8.78     4.51     4.36     5.04     5.76
 2004 243   326   5707.0    0.466    1.513     77.5   1085.2   4544.2     39.0    10.20     5.68    27.43    0.091    0.162    0.046    0.103    0.035    0.007    0.012    0.003    0.007    0.003     8.85     4.59     4.40     5.08     5.78
 2004 244   327   5706.9    0.726    1.981     77.8   1084.7   4544.4     39.0    10.21     5.69    27.45    0.172    0.273    0.081    0.124    0.041    0.004    0.006    0.002    0.003    0.001     8.93     4.67     4.45     5.12     5.79
 2004 245   328   5706.9    0.623    1.716     78.1   1084.2   4544.5     39.0    10.21     5.70    27.47    0.147    0.213    0.062    0.115    0.045    0.004    0.006    0.002    0.003    0.001     9.01     4.74     4.50     5.16     5.81
 2004 246   329   5706.9    0.847    2.142     78.4   1083.8   4544.7     39.0    10.22     5.72    27.49    0.210    0.302    0.087    0.149    0.054    0.005    0.008    0.002    0.004    0.001     9.08     4.82     4.54     5.20     5.82
 2004 247   330   5706.8    0.829    2.107     78.7   1083.3   4544.9     39.0    10.22     5.74    27.52    0.208    0.278    0.085    0.153    0.059    0.008    0.011    0.003    0.006    0.002     9.14     4.88     4.58     5.23     5.83
 2004 248   331   5706.8    0.721    1.911     78.9   1082.8   4545.0     39.0    10.23     5.75    27.54    0.161    0.233    0.081    0.142    0.058    0.004    0.006    0.002    0.004    0.002     9.20     4.95     4.62     5.26     5.85
 2004 249   332   5706.8    0.619    1.668     79.2   1082.4   4545.2     39.0    10.23     5.76    27.57    0.137    0.197    0.063    0.124    0.053    0.006    0.009    0.003    0.006    0.002     9.26     5.01     4.66     5.29     5.86
 2004 250   333   5706.7    0.658    1.718     79.4   1082.0   4545.4     39.0    10.24     5.78    27.58    0.173    0.205    0.061    0.121    0.053    0.003    0.004    0.001    0.002    0.001     9.31     5.07     4.70     5.32     5.87
 2004 251   334   5706.7    0.722    1.779     79.6   1081.5   4545.5     39.0    10.24     5.80    27.60    0.211    0.218    0.064    0.121    0.058    0.004    0.004    0.001    0.002    0.001     9.37     5.13     4.74     5.35     5.88
 2004 252   335   5706.7    0.649    1.648     79.8   1081.1   4545.7     39.0    10.25     5.81    27.62    0.165    0.201    0.058    0.118    0.057    0.006    0.007    0.002    0.004    0.002     9.42     5.19     4.77     5.38     5.89
 2004 253   336   5706.6    0.618    1.589     80.0   1080.7   4545.9     39.0    10.25     5.83    27.98    0.152    0.191    0.055    0.115    0.055    0.090    0.113    0.032    0.068    0.033     9.47     5.25     4.80     5.40     5.90
 2004 254   337   5706.3    0.580    1.520     79.9   1080.3   4546.1     39.0    10.26     5.85    28.00    0.139    0.176    0.051    0.111    0.054    0.003    0.004    0.001    0.002    0.001     9.41     5.23     4.80     5.39     5.89
 2004 255   338   5706.2    0.835    1.924     80.1   1079.9   4546.2     39.0    10.26     5.86    28.19    0.258    0.273    0.078    0.123    0.054    0.060    0.063    0.018    0.029    0.013     9.46     5.28     4.83     5.42     5.90
 2004 256   339   5706.0    0.826    1.925     80.1   1079.5   4546.4     39.0    10.27     5.88    28.37    0.242    0.259    0.084    0.131    0.060    0.053    0.057    0.018    0.029    0.013     9.43     5.30     4.84     5.42     5.90
 2004 257   340   5705.8    0.945    2.136     80.1   1079.2   4546.6     39.0    10.27     5.90    28.68    0.253    0.326    0.098    0.150    0.066    0.083    0.107    0.032    0.049    0.022     9.42     5.32     4.85     5.43     5.90
 2004 258   341   5705.5    0.871    2.045     80.0   1078.8   4546.7     39.0    10.28     5.91    29.09    0.233    0.273    0.097    0.147    0.068    0.109    0.127    0.045    0.068    0.032     9.37     5.30     4.84     5.43     5.90
 2004 259   342   5705.1    0.982    2.229     79.8   1078.4   4546.9     39.0    10.28     5.93    29.21    0.253    0.339    0.099    0.164    0.074    0.033    0.044    0.013    0.021    0.010     9.29     5.27     4.82     5.41     5.89
 2004 260   343   5705.0    0.776    1.899     79.9   1078.0   4547.1     39.0    10.29     5.94    29.46    0.187    0.259    0.076    0.137    0.064    0.058    0.080    0.023    0.043    0.020     9.30     5.30     4.83     5.42     5.89
 2004 261   344   5704.7    0.672    1.691     79.9   1077.6   4547.2     39.0    10.29     5.96    29.47    0.154    0.219    0.064    0.125    0.059    0.003    0.004    0.001    0.002    0.001     9.28     5.30     4.83     5.42     5.89
 2004 262   345   5704.7    0.615    1.575     80.1   1077.2   4547.4     39.0    10.29     5.98    29.66    0.134    0.197    0.058    0.119    0.057    0.042    0.061    0.018    0.037    0.018     9.34     5.35     4.86     5.45     5.90
 2004 263   346   5704.5    0.821    1.910     80.1   1076.8   4547.6     39.0    10.30     5.99    29.78    0.254    0.260    0.076    0.125    0.058    0.037    0.038    0.011    0.018    0.008     9.34     5.36     4.87     5.45     5.89
 2004 264   347   5704.3    0.826    1.926     80.2   1076.5   4547.7     39.0    10.30     6.01    30.23    0.242    0.261    0.083    0.132    0.060    0.132    0.142    0.045    0.072    0.033     9.34     5.39     4.89     5.46     5.90
 2004 265   348   5703.9    0.807    1.915     79.9   1076.1   4547.9     39.0    10.31     6.03    30.34    0.223    0.255    0.083    0.134    0.062    0.031    0.035    0.012    0.019    0.009     9.23     5.34     4.86     5.44     5.89
 2004 266   349   5703.8    0.677    1.685     80.0   1075.7   4548.1     39.0    10.31     6.05    30.64    0.162    0.217    0.067    0.124    0.058    0.071    0.095    0.029    0.054    0.025     9.25     5.37     4.88     5.45     5.89
 2004 267   350   5703.4    0.702    1.721     79.9   1075.3   4548.2     39.0    10.32     6.07    30.93    0.191    0.220    0.066    0.121    0.057    0.071    0.095    0.029    0.054    0.025     9.21     5.36     4.87     5.44     5.88
 2004 268   351   5703.1    0.634    1.601     79.8   1074.9   4548.4     39.0    10.33     6.09    31.23    0.148    0.206    0.060    0.118    0.054    0.071    0.095    0.029    0.054    0.025     9.18     5.35     4.86     5.43     5.88
 2004 269   352   5702.8    0.566    1.485     79.7   1074.6   4548.6     39.0    10.33     6.11    31.23    0.123    0.180    0.053    0.111    0.052    0.000    0.000    0.000    0.000    0.000     9.14     5.34     4.85     5.42     5.87
 2004 270   353   5702.8    0.712    1.713     79.9   1074.2   4548.7     39.0    10.33     6.12    31.23    0.222    0.227    0.058    0.109    0.051    0.000    0.000    0.000    0.000    0.000     9.20     5.38     4.88     5.44     5.88
 2004 271   354   5702.8    0.652    1.605     80.1   1073.8   4548.9     39.0    10.34     6.14    31.23    0.171    0.216    0.061    0.108    0.050    0.000    0.000    0.000    0.000    0.000     9.25     5.43     4.91     5.47     5.89
 2004 272   355   5702.8    0.575    1.471     80.3   1073.5   4549.1     39.0    10.34     6.16    31.23    0.133    0.190    0.053    0.105    0.049    0.000    0.000    0.000    0.000    0.000     9.31     5.47     4.94     5.49     5.90
 2004 273   356   5702.8    0.698    1.663     80.5   1073.1   4549.2     39.0    10.35     6.17    31.23    0.219    0.222    0.063    0.102    0.048    0.000    0.000    0.000    0.000    0.000     9.36     5.52     4.97     5.51     5.91
 2004 274   357   5702.8    0.619    1.527     80.6   1072.8   4549.4     39.0    10.35     6.19    31.23    0.157    0.208    0.061    0.101    0.048    0.000    0.000    0.000    0.000    0.000     9.40     5.56     4.99     5.53     5.92
 2004 275   358   5702.8    0.550    1.413     80.8   1072.4   4549.5     39.0    10.36     6.20    31.23    0.126    0.179    0.053    0.101    0.048    0.000    0.000    0.000    0.000    0.000     9.45     5.60     5.02     5.55     5.93
 2004 276   359   5702.7    0.510    1.343     80.9   1072.1   4549.7     39.0    10.36     6.22    31.23    0.104    0.166    0.049    0.100    0.047    0.000    0.000    0.000    0.000    0.000     9.49     5.64     5.04     5.57     5.93
 2004 277   360   5702.7    0.494    1.314     81.1   1071.8   4549.9     39.0    10.36     6.23    31.23    0.096    0.162    0.048    0.099    0.047    0.000    0.000    0.000    0.000    0.000     9.54     5.67     5.06     5.58     5.94
 2004 278   361   5702.7    0.510    1.336     81.2   1071.5   4550.0     39.0    10.37     6.24    31.23    0.117    0.159    0.047    0.098    0.046    0.000    0.000    0.000    0.000    0.000     9.58     5.71     5.08     5.60     5.95
 2004 279   362   5702.7    0.494    1.306     81.3   1071.2   4550.2     39.0    10.37     6.25    31.23    0.105    0.156    0.046    0.098    0.046    0.000    0.000    0.000    0.000    0.000     9.62     5.74     5.10     5.62     5.95
 2004 280   363   5702.7    0.483    1.285     81.5   1070.9   4550.4     39.0    10.37     6.26    31.23    0.097    0.154    0.046    0.097    0.046    0.000    0.000    0.000    0.000    0.000     9.66     5.77     5.12     5.63     5.96
 2004 281   364   5702.7    0.475    1.269     81.6   1070.6   4550.5     39.0    10.37     6.27    31.23    0.092    0.153    0.045    0.097    0.046    0.000    0.000    0.000    0.000    0.000     9.69     5.81     5.14     5.65     5.97
 2004 282   365   5702.7    0.467    1.254     81.7   1070.3   4550.7     39.0    10.38     6.28    31.23    0.087    0.151    0.045    0.096    0.045    0.000    0.000    0.000    0.000    0.000     9.73     5.84     5.16     5.66     5.97
 2004 283   366   5702.7    0.460    1.241     81.8   1070.0   4550.9     39.0    10.38     6.29    31.23    0.082    0.150    0.045    0.096    0.045    0.000    0.000    0.000    0.000    0.000     9.76     5.86     5.18     5.67     5.98
 2004 284   367   5702.7    0.456    1.231     81.9   1069.8   4551.0     39.0    10.38     6.30    31.23    0.080    0.149    0.045    0.096    0.045    0.000    0.000    0.000    0.000    0.000     9.80     5.89     5.20     5.69     5.98
 2004 285   368   5702.7    0.581    1.429     82.0   1069.5   4551.2     39.0    10.38     6.30    31.23    0.188    0.168    0.044    0.095    0.045    0.000    0.000    0.000    0.000    0.000     9.83     5.92     5.21     5.70     5.99
 2004 286   369   5702.7    0.498    1.285     82.1   1069.2   4551.3     39.0    10.39     6.32    31.23    0.110    0.166    0.043    0.093    0.044    0.000    0.000    0.000    0.000    0.000     9.86     5.94     5.23     5.71     5.99
 2004 287   370   5702.7    0.486    1.265     82.2   1069.0   4551.5     39.0    10.39     6.33    31.23    0.102    0.163    0.043    0.093    0.044    0.000    0.000    0.000    0.000    0.000     9.88     5.97     5.25     5.72     6.00
 2004 288   371   5702.7    0.477    1.249     82.3   1068.7   4551.7     39.0    10.39     6.33    31.23    0.096    0.161    0.043    0.093    0.044    0.000    0.000    0.000    0.000    0.000     9.91     5.99     5.26     5.73     6.00
 2004 289   372   5702.7    0.469    1.235     82.4   1068.5   4551.8     39.0    10.39     6.34    31.23    0.091    0.159    0.043    0.093    0.044    0.000    0.000    0.000    0.000    0.000     9.94     6.01     5.27     5.74     6.00
 2004 290   373   5702.6    0.462    1.222     82.4   1068.2   4552.0     39.0    10.39     6.35    31.23    0.086    0.157    0.043    0.093    0.044    0.000    0.000    0.000    0.000    0.000     9.96     6.04     5.29     5.75     6.01
 2004 291   374   5702.6    0.457    1.213     82.5   1068.0   4552.1     39.0    10.40     6.36    31.23    0.083    0.155    0.043    0.092    0.044    0.000    0.000    0.000    0.000    0.000     9.99     6.06     5.30     5.76     6.01
 2004 292   375   5702.6    0.456    1.209     82.6   1067.7   4552.3     39.0    10.40     6.37    31.23    0.083    0.154    0.043    0.092    0.043    0.000    0.000    0.000    0.000    0.000    10.01     6.08     5.31     5.77     6.01
 2004 293   376   5702.6    0.454    1.206     82.7   1067.5   4552.5     39.0    10.40     6.37    31.23    0.083    0.152    0.043    0.092    0.043    0.000    0.000    0.000    0.000    0.000    10.04     6.09     5.33     5.77     6.02
 2004 294   377   5702.6    0.453    1.203     82.7   1067.3   4552.6     39.0    10.40     6.38    31.23    0.084    0.151    0.044    0.092    0.043    0.000    0.000    0.000    0.000    0.000    10.06     6.11     5.34     5.78     6.02
