*SOIL WATER DAILY OUTPUT FILE

*DSSAT Cropping System Model Ver. 4.5.1.023 -Stub         NOV 07, 2014; 01:44:25
                                                                                
*RUN   1        : N0 P0                     MZCER045 GHWA0401    1              
 MODEL          : MZCER045 - Maize                                              
 EXPERIMENT     : GHWA0401 MZ ON-STATION NXP (EXPERIMENT NO.2) 9 TRT            
 DATA PATH      :                                                               
 TREATMENT  1   : N0 P0                     MZCER045                            
  
!                                                                                                 Soil water content (mm3/mm3) by soil depth (cm):
!                                                                                                 0-5    5-15   15-20   20-30   30-40   40-50   50-60   60-90
@YEAR DOY   DAS  SWTD  SWXD   ROFC   DRNC   PREC  IR#C  IRRC  DTWT    MWTD  TDFD  TDFC   ROFD    SW1D    SW2D    SW3D    SW4D    SW5D    SW6D    SW7D    SW8D    
 2003 282     0   123    39      0      0      0     0     0     0    0.26   0.0   0.0   0.00   0.150   0.150   0.150   0.190   0.190   0.170   0.170   0.070
 2003 283     1   122    38      0      0      0     0     0    45    0.18   0.0   0.0   0.00   0.139   0.149   0.150   0.190   0.190   0.170   0.170   0.070
 2003 284     2   122    38      0      0      1     0     0    90    0.41   0.0   0.0   0.00   0.140   0.149   0.150   0.190   0.190   0.170   0.170   0.070
 2003 285     3   126    42      0      0      8     0     0    90    0.43   0.0   0.0   0.00   0.195   0.160   0.162   0.189   0.189   0.171   0.168   0.069
 2003 286     4   123    39      0      0      9     0     0    90    0.41   0.0   0.0   0.00   0.155   0.155   0.161   0.189   0.188   0.170   0.166   0.069
 2003 287     5   128    44      0      0     17     0     0    90    0.48   0.0   0.0   0.00   0.211   0.166   0.174   0.193   0.190   0.170   0.167   0.068
 2003 288     6   159    75      2      7     62     0     0    80    0.44   0.0   0.0   2.24   0.233   0.237   0.240   0.254   0.255   0.181   0.182   0.082
 2003 289     7   155    71      2     16     69     0     0    79    0.46   0.0   0.0   0.00   0.233   0.205   0.242   0.244   0.248   0.182   0.182   0.083
 2003 290     8   151    67      2     23     76     0     0    80    0.43   0.0   0.0   0.00   0.236   0.192   0.237   0.234   0.239   0.182   0.182   0.082
 2003 291     9   142    58      2     29     76     0     0    80    0.41   0.0   0.0   0.00   0.171   0.171   0.210   0.221   0.227   0.181   0.181   0.082
 2003 292    10   129    45      2     38     76     0     0    89    0.31   0.0   0.0   0.00   0.143   0.154   0.172   0.198   0.201   0.172   0.172   0.079
 2003 293    11   125    41      2     40     76     0     0    90    0.23   0.0   0.0   0.00   0.127   0.148   0.157   0.189   0.191   0.169   0.170   0.079
 2003 294    12   122    38      2     40     76     0     0    90    0.17   0.0   0.0   0.00   0.113   0.141   0.152   0.185   0.188   0.167   0.168   0.078
 2003 295    13   121    37      2     40     76     0     0    90    0.13   0.0   0.0   0.00   0.105   0.141   0.152   0.185   0.188   0.167   0.168   0.078
 2003 296    14   127    43      2     40     85     0     0    90    0.40   0.0   0.0   0.00   0.194   0.156   0.159   0.187   0.184   0.165   0.166   0.077
 2003 297    15   125    41      2     40     87     0     0    90    0.32   0.0   0.0   0.00   0.169   0.157   0.162   0.188   0.185   0.162   0.164   0.076
 2003 298    16   122    38      2     40     87     0     0    90    0.24   0.0   0.0   0.00   0.142   0.150   0.153   0.186   0.186   0.160   0.162   0.076
 2003 299    17   121    37      2     40     87     0     0    90    0.19   0.0   0.0   0.00   0.132   0.150   0.153   0.186   0.186   0.160   0.162   0.076
 2003 300    18   121    37      2     40     87     0     0    90    0.15   0.0   0.0   0.00   0.123   0.149   0.153   0.186   0.186   0.160   0.162   0.076
 2003 301    19   120    36      2     40     87     0     0    90    0.11   0.0   0.0   0.00   0.115   0.148   0.153   0.185   0.186   0.160   0.162   0.076
 2003 302    20   120    36      2     40     87     0     0    90    0.09   0.0   0.0   0.00   0.107   0.148   0.152   0.185   0.185   0.160   0.162   0.076
 2003 303    21   122    38      2     40     93     0     0    90    0.34   0.0   0.0   0.00   0.165   0.152   0.153   0.183   0.182   0.158   0.160   0.075
 2003 304    22   119    35      2     40     93     0     0    90    0.27   0.0   0.0   0.00   0.141   0.148   0.149   0.179   0.179   0.156   0.158   0.074
 2003 305    23   118    34      2     40     93     0     0    90    0.21   0.0   0.0   0.00   0.131   0.147   0.149   0.179   0.179   0.156   0.158   0.074
 2003 306    24   118    34      2     40     93     0     0    90    0.17   0.0   0.0   0.00   0.122   0.147   0.148   0.179   0.179   0.156   0.158   0.074
 2003 307    25   117    33      2     40     93     0     0    90    0.14   0.0   0.0   0.00   0.114   0.146   0.148   0.179   0.179   0.155   0.158   0.074
 2003 308    26   117    33      2     40     93     0     0    90    0.11   0.0   0.0   0.00   0.106   0.145   0.148   0.179   0.179   0.155   0.158   0.074
 2003 309    27   116    32      2     40     93     0     0    90    0.09   0.0   0.0   0.00   0.099   0.145   0.148   0.179   0.179   0.155   0.158   0.074
 2003 310    28   127    43      2     40    108     0     0    90    0.30   0.0   0.0   0.00   0.239   0.169   0.173   0.188   0.179   0.153   0.156   0.073
 2003 311    29   132    48      2     40    116     0     0    90    0.26   0.0   0.0   0.00   0.231   0.183   0.199   0.200   0.191   0.157   0.154   0.073
 2003 312    30   129    45      2     40    117     0     0    90    0.30   0.0   0.0   0.00   0.172   0.168   0.191   0.202   0.197   0.171   0.153   0.072
 2003 313    31   126    42      2     40    117     0     0    90    0.25   0.0   0.0   0.00   0.143   0.153   0.164   0.191   0.189   0.168   0.168   0.077
 2003 314    32   122    39      2     40    117     0     0    90    0.20   0.0   0.0   0.00   0.127   0.147   0.154   0.186   0.187   0.168   0.167   0.077
 2003 315    33   122    38      2     40    117     0     0    90    0.17   0.0   0.0   0.00   0.118   0.146   0.154   0.186   0.187   0.168   0.167   0.077
 2003 316    34   121    38      2     40    117     0     0    90    0.14   0.0   0.0   0.00   0.111   0.145   0.154   0.186   0.187   0.168   0.167   0.077
 2003 317    35   121    37      2     40    117     0     0    90    0.11   0.0   0.0   0.00   0.103   0.145   0.153   0.186   0.186   0.168   0.167   0.077
 2003 318    36   121    37      2     40    117     0     0    90    0.09   0.0   0.0   0.00   0.097   0.144   0.153   0.186   0.186   0.167   0.167   0.077
 2003 319    37   120    36      2     40    117     0     0    90    0.08   0.0   0.0   0.00   0.091   0.143   0.153   0.186   0.186   0.167   0.167   0.077
 2003 320    38   120    36      2     40    117     0     0    90    0.06   0.0   0.0   0.00   0.085   0.143   0.153   0.186   0.186   0.167   0.167   0.077
 2003 321    39   119    36      2     40    117     0     0    90    0.05   0.0   0.0   0.00   0.080   0.142   0.153   0.185   0.186   0.167   0.167   0.077
 2003 322    40   119    35      2     40    117     0     0    90    0.04   0.0   0.0   0.00   0.075   0.142   0.152   0.185   0.186   0.167   0.167   0.077
 2003 323    41   119    35      2     40    117     0     0    90    0.04   0.0   0.0   0.00   0.071   0.141   0.152   0.185   0.186   0.167   0.166   0.077
 2003 324    42   118    35      2     40    117     0     0    90    0.03   0.0   0.0   0.00   0.067   0.140   0.152   0.185   0.186   0.167   0.166   0.077
 2003 325    43   118    34      2     40    117     0     0    90    0.03   0.0   0.0   0.00   0.064   0.140   0.152   0.185   0.186   0.167   0.166   0.077
 2003 326    44   118    34      2     40    117     0     0    90    0.02   0.0   0.0   0.00   0.060   0.139   0.152   0.185   0.186   0.167   0.166   0.077
 2003 327    45   118    34      2     40    117     0     0    90    0.02   0.0   0.0   0.00   0.057   0.139   0.151   0.185   0.186   0.167   0.166   0.077
 2003 328    46   117    34      2     40    117     0     0    90    0.01   0.0   0.0   0.00   0.055   0.138   0.151   0.185   0.186   0.167   0.166   0.077
 2003 329    47   117    33      2     40    117     0     0    90    0.01   0.0   0.0   0.00   0.052   0.137   0.151   0.184   0.186   0.167   0.166   0.077
 2003 330    48   117    33      2     40    117     0     0    90    0.01   0.0   0.0   0.00   0.050   0.137   0.151   0.184   0.186   0.167   0.166   0.077
 2003 331    49   117    33      2     40    117     0     0    90    0.01   0.0   0.0   0.00   0.048   0.136   0.150   0.184   0.186   0.167   0.166   0.077
 2003 332    50   117    33      2     40    117     0     0    90    0.01   0.0   0.0   0.00   0.046   0.136   0.150   0.184   0.186   0.167   0.166   0.077
 2003 333    51   116    33      2     40    117     0     0    90    0.01   0.0   0.0   0.00   0.044   0.135   0.150   0.184   0.185   0.167   0.166   0.077
 2003 334    52   116    32      2     40    117     0     0    90    0.00   0.0   0.0   0.00   0.043   0.134   0.150   0.184   0.185   0.167   0.166   0.077
 2003 335    53   116    32      2     40    117     0     0    90    0.00   0.0   0.0   0.00   0.041   0.134   0.150   0.184   0.185   0.167   0.166   0.077
 2003 336    54   116    32      2     40    117     0     0    90    0.00   0.0   0.0   0.00   0.040   0.133   0.149   0.184   0.185   0.167   0.166   0.077
 2003 337    55   117    33      2     40    118     0     0    90    0.25   0.0   0.0   0.00   0.059   0.133   0.149   0.183   0.185   0.167   0.166   0.077
 2003 338    56   117    33      2     40    118     0     0    90    0.21   0.0   0.0   0.00   0.056   0.132   0.149   0.183   0.185   0.167   0.166   0.077
 2003 339    57   116    32      2     40    118     0     0    90    0.18   0.0   0.0   0.00   0.053   0.132   0.149   0.183   0.185   0.167   0.166   0.077
 2003 340    58   116    32      2     40    118     0     0    90    0.15   0.0   0.0   0.00   0.051   0.131   0.149   0.183   0.185   0.167   0.166   0.077
 2003 341    59   116    32      2     40    118     0     0    90    0.12   0.0   0.0   0.00   0.049   0.131   0.148   0.183   0.185   0.167   0.166   0.077
 2003 342    60   116    32      2     40    118     0     0    90    0.10   0.0   0.0   0.00   0.047   0.130   0.148   0.183   0.185   0.167   0.166   0.077
 2003 343    61   116    32      2     40    118     0     0    90    0.09   0.0   0.0   0.00   0.045   0.129   0.148   0.183   0.185   0.167   0.166   0.077
 2003 344    62   115    31      2     40    118     0     0    90    0.07   0.0   0.0   0.00   0.043   0.129   0.148   0.183   0.185   0.167   0.166   0.077
 2003 345    63   115    31      2     40    118     0     0    90    0.06   0.0   0.0   0.00   0.042   0.128   0.147   0.182   0.185   0.167   0.166   0.077
 2003 346    64   115    31      2     40    118     0     0    90    0.05   0.0   0.0   0.00   0.040   0.128   0.147   0.182   0.185   0.167   0.166   0.077
 2003 347    65   115    31      2     40    118     0     0    90    0.04   0.0   0.0   0.00   0.039   0.127   0.147   0.182   0.185   0.166   0.166   0.077
 2003 348    66   115    31      2     40    118     0     0    90    0.03   0.0   0.0   0.00   0.038   0.127   0.147   0.182   0.184   0.166   0.166   0.077
 2003 349    67   115    31      2     40    118     0     0    90    0.03   0.0   0.0   0.00   0.037   0.126   0.147   0.182   0.184   0.166   0.166   0.077
 2003 350    68   114    31      2     40    118     0     0    90    0.02   0.0   0.0   0.00   0.036   0.126   0.146   0.182   0.184   0.166   0.166   0.077
 2003 351    69   114    30      2     40    118     0     0    90    0.02   0.0   0.0   0.00   0.035   0.125   0.146   0.182   0.184   0.166   0.166   0.077
 2003 352    70   114    30      2     40    118     0     0    90    0.02   0.0   0.0   0.00   0.034   0.125   0.146   0.182   0.184   0.166   0.166   0.076
 2003 353    71   114    30      2     40    118     0     0    90    0.01   0.0   0.0   0.00   0.033   0.124   0.146   0.181   0.184   0.166   0.166   0.076
 2003 354    72   114    30      2     40    118     0     0    90    0.01   0.0   0.0   0.00   0.033   0.124   0.146   0.181   0.184   0.166   0.166   0.076
 2003 355    73   114    30      2     40    118     0     0    90    0.01   0.0   0.0   0.00   0.032   0.123   0.145   0.181   0.184   0.166   0.166   0.076
 2003 356    74   114    30      2     40    118     0     0    90    0.01   0.0   0.0   0.00   0.032   0.123   0.145   0.181   0.184   0.166   0.166   0.076
 2003 357    75   114    30      2     40    118     0     0    90    0.01   0.0   0.0   0.00   0.031   0.122   0.145   0.181   0.184   0.166   0.166   0.076
 2003 358    76   114    30      2     40    118     0     0    90    0.01   0.0   0.0   0.00   0.031   0.122   0.145   0.181   0.184   0.166   0.166   0.076
 2003 359    77   113    29      2     40    118     0     0    90    0.00   0.0   0.0   0.00   0.030   0.121   0.145   0.181   0.184   0.166   0.166   0.076
 2003 360    78   113    29      2     40    118     0     0    90    0.00   0.0   0.0   0.00   0.030   0.120   0.144   0.181   0.184   0.166   0.166   0.076
 2003 361    79   113    29      2     40    118     0     0    90    0.00   0.0   0.0   0.00   0.029   0.120   0.144   0.180   0.184   0.166   0.166   0.076
 2003 362    80   113    29      2     40    118     0     0    90    0.00   0.0   0.0   0.00   0.029   0.119   0.144   0.180   0.184   0.166   0.166   0.076
 2003 363    81   113    29      2     40    118     0     0    90    0.00   0.0   0.0   0.00   0.029   0.119   0.144   0.180   0.183   0.166   0.166   0.076
 2003 364    82   113    29      2     40    118     0     0    90    0.00   0.0   0.0   0.00   0.028   0.119   0.144   0.180   0.183   0.166   0.166   0.076
 2003 365    83   113    29      2     40    118     0     0    90    0.00   0.0   0.0   0.00   0.028   0.118   0.143   0.180   0.183   0.166   0.166   0.076
 2004 001    84   113    29      2     40    118     0     0    90    0.00   0.0   0.0   0.00   0.028   0.118   0.143   0.180   0.183   0.166   0.166   0.076
 2004 002    85   113    29      2     40    118     0     0    90    0.00   0.0   0.0   0.00   0.028   0.117   0.143   0.180   0.183   0.166   0.166   0.076
 2004 003    86   112    29      2     40    118     0     0    90    0.00   0.0   0.0   0.00   0.028   0.117   0.143   0.180   0.183   0.166   0.165   0.076
 2004 004    87   112    29      2     40    118     0     0    90    0.00   0.0   0.0   0.00   0.027   0.116   0.143   0.179   0.183   0.166   0.165   0.076
 2004 005    88   112    28      2     40    118     0     0    90    0.00   0.0   0.0   0.00   0.027   0.116   0.142   0.179   0.183   0.166   0.165   0.076
 2004 006    89   112    28      2     40    118     0     0    90    0.00   0.0   0.0   0.00   0.027   0.115   0.142   0.179   0.183   0.166   0.165   0.076
 2004 007    90   112    28      2     40    118     0     0    90    0.00   0.0   0.0   0.00   0.027   0.115   0.142   0.179   0.183   0.166   0.165   0.076
 2004 008    91   112    28      2     40    118     0     0    90    0.00   0.0   0.0   0.00   0.027   0.114   0.142   0.179   0.183   0.166   0.165   0.076
 2004 009    92   112    28      2     40    118     0     0    90    0.00   0.0   0.0   0.00   0.027   0.114   0.142   0.179   0.183   0.166   0.165   0.076
 2004 010    93   112    28      2     40    118     0     0    90    0.00   0.0   0.0   0.00   0.027   0.113   0.141   0.179   0.183   0.166   0.165   0.076
 2004 011    94   112    28      2     40    118     0     0    90    0.00   0.0   0.0   0.00   0.027   0.113   0.141   0.179   0.183   0.166   0.165   0.076
 2004 012    95   112    28      2     40    118     0     0    90    0.00   0.0   0.0   0.00   0.026   0.112   0.141   0.178   0.183   0.165   0.165   0.076
 2004 013    96   112    28      2     40    118     0     0    90    0.00   0.0   0.0   0.00   0.026   0.112   0.141   0.178   0.183   0.165   0.165   0.076
 2004 014    97   112    28      2     40    118     0     0    90    0.00   0.0   0.0   0.00   0.026   0.111   0.141   0.178   0.182   0.165   0.165   0.076
 2004 015    98   111    28      2     40    118     0     0    90    0.00   0.0   0.0   0.00   0.026   0.111   0.140   0.178   0.182   0.165   0.165   0.076
 2004 016    99   111    27      2     40    118     0     0    90    0.00   0.0   0.0   0.00   0.026   0.111   0.140   0.178   0.182   0.165   0.165   0.076
 2004 017   100   111    27      2     40    118     0     0    90    0.00   0.0   0.0   0.00   0.026   0.110   0.140   0.178   0.182   0.165   0.165   0.076
 2004 018   101   111    27      2     40    118     0     0    90    0.00   0.0   0.0   0.00   0.026   0.110   0.140   0.178   0.182   0.165   0.165   0.076
 2004 019   102   111    27      2     40    118     0     0    90    0.00   0.0   0.0   0.00   0.026   0.109   0.140   0.178   0.182   0.165   0.165   0.076
 2004 020   103   134    50      2     40    144     0     0    90    0.25   0.0   0.0   0.00   0.244   0.189   0.192   0.194   0.188   0.165   0.163   0.076
 2004 021   104   127    43      2     43    144     0     0    90    0.21   0.0   0.0   0.00   0.168   0.161   0.165   0.187   0.187   0.168   0.168   0.078
 2004 022   105   125    41      2     43    144     0     0    90    0.17   0.0   0.0   0.00   0.147   0.153   0.156   0.187   0.188   0.168   0.168   0.078
 2004 023   106   122    38      2     43    144     0     0    90    0.15   0.0   0.0   0.00   0.130   0.146   0.151   0.183   0.184   0.166   0.166   0.077
 2004 024   107   121    37      2     43    144     0     0    90    0.12   0.0   0.0   0.00   0.121   0.145   0.151   0.183   0.184   0.166   0.166   0.077
 2004 025   108   121    37      2     43    144     0     0    90    0.10   0.0   0.0   0.00   0.113   0.145   0.151   0.183   0.184   0.166   0.166   0.077
 2004 026   109   120    36      2     43    144     0     0    90    0.09   0.0   0.0   0.00   0.106   0.144   0.150   0.183   0.184   0.166   0.166   0.077
 2004 027   110   120    36      2     43    144     0     0    90    0.08   0.0   0.0   0.00   0.099   0.143   0.150   0.182   0.184   0.166   0.166   0.077
 2004 028   111   119    35      2     43    144     0     0    90    0.06   0.0   0.0   0.00   0.093   0.143   0.150   0.182   0.184   0.166   0.166   0.077
 2004 029   112   119    35      2     43    144     0     0    90    0.05   0.0   0.0   0.00   0.087   0.142   0.150   0.182   0.184   0.166   0.166   0.077
 2004 030   113   119    35      2     43    144     0     0    90    0.05   0.0   0.0   0.00   0.082   0.142   0.150   0.182   0.184   0.166   0.166   0.077
 2004 031   114   118    34      2     43    144     0     0    90    0.04   0.0   0.0   0.00   0.077   0.141   0.149   0.182   0.184   0.166   0.166   0.077
 2004 032   115   118    34      2     43    144     0     0    90    0.03   0.0   0.0   0.00   0.073   0.140   0.149   0.182   0.184   0.166   0.166   0.077
 2004 033   116   118    34      2     43    144     0     0    90    0.03   0.0   0.0   0.00   0.069   0.140   0.149   0.182   0.184   0.166   0.166   0.077
 2004 034   117   117    33      2     43    144     0     0    90    0.02   0.0   0.0   0.00   0.065   0.139   0.149   0.182   0.184   0.166   0.166   0.077
 2004 035   118   117    33      2     43    144     0     0    90    0.02   0.0   0.0   0.00   0.062   0.139   0.148   0.181   0.184   0.166   0.166   0.077
 2004 036   119   117    33      2     43    144     0     0    90    0.02   0.0   0.0   0.00   0.058   0.138   0.148   0.181   0.184   0.165   0.166   0.077
 2004 037   120   117    33      2     43    144     0     0    90    0.02   0.0   0.0   0.00   0.056   0.137   0.148   0.181   0.183   0.165   0.166   0.077
 2004 038   121   116    32      2     43    144     0     0    90    0.01   0.0   0.0   0.00   0.053   0.137   0.148   0.181   0.183   0.165   0.166   0.077
 2004 039   122   116    32      2     43    144     0     0    90    0.01   0.0   0.0   0.00   0.051   0.136   0.148   0.181   0.183   0.165   0.166   0.077
 2004 040   123   116    32      2     43    144     0     0    90    0.01   0.0   0.0   0.00   0.049   0.136   0.147   0.181   0.183   0.165   0.166   0.077
 2004 041   124   116    32      2     43    144     0     0    90    0.01   0.0   0.0   0.00   0.047   0.135   0.147   0.181   0.183   0.165   0.166   0.077
 2004 042   125   116    32      2     43    144     0     0    90    0.01   0.0   0.0   0.00   0.045   0.134   0.147   0.181   0.183   0.165   0.166   0.077
 2004 043   126   115    31      2     43    144     0     0    90    0.01   0.0   0.0   0.00   0.043   0.134   0.147   0.180   0.183   0.165   0.166   0.077
 2004 044   127   115    31      2     43    144     0     0    90    0.01   0.0   0.0   0.00   0.042   0.133   0.147   0.180   0.183   0.165   0.166   0.077
 2004 045   128   115    31      2     43    144     0     0    90    0.00   0.0   0.0   0.00   0.040   0.133   0.146   0.180   0.183   0.165   0.166   0.077
 2004 046   129   115    31      2     43    144     0     0    90    0.00   0.0   0.0   0.00   0.039   0.132   0.146   0.180   0.183   0.165   0.166   0.077
 2004 047   130   115    31      2     43    144     0     0    90    0.00   0.0   0.0   0.00   0.038   0.132   0.146   0.180   0.183   0.165   0.166   0.077
 2004 048   131   115    31      2     43    144     0     0    90    0.00   0.0   0.0   0.00   0.037   0.131   0.146   0.180   0.183   0.165   0.166   0.077
 2004 049   132   114    31      2     43    144     0     0    90    0.00   0.0   0.0   0.00   0.036   0.130   0.146   0.180   0.183   0.165   0.166   0.077
 2004 050   133   114    30      2     43    144     0     0    90    0.00   0.0   0.0   0.00   0.035   0.130   0.145   0.180   0.183   0.165   0.166   0.077
 2004 051   134   114    30      2     43    144     0     0    90    0.00   0.0   0.0   0.00   0.034   0.129   0.145   0.179   0.183   0.165   0.166   0.077
 2004 052   135   114    30      2     43    144     0     0    90    0.00   0.0   0.0   0.00   0.033   0.129   0.145   0.179   0.182   0.165   0.166   0.077
 2004 053   136   114    30      2     43    144     0     0    90    0.00   0.0   0.0   0.00   0.033   0.128   0.145   0.179   0.182   0.165   0.166   0.077
 2004 054   137   114    30      2     43    144     0     0    90    0.00   0.0   0.0   0.00   0.032   0.128   0.145   0.179   0.182   0.165   0.166   0.077
 2004 055   138   114    30      2     43    144     0     0    90    0.00   0.0   0.0   0.00   0.032   0.127   0.144   0.179   0.182   0.165   0.166   0.077
 2004 056   139   114    30      2     43    144     0     0    90    0.00   0.0   0.0   0.00   0.031   0.127   0.144   0.179   0.182   0.165   0.166   0.077
 2004 057   140   113    30      2     43    144     0     0    90    0.00   0.0   0.0   0.00   0.031   0.126   0.144   0.179   0.182   0.165   0.166   0.077
 2004 058   141   113    29      2     43    144     0     0    90    0.00   0.0   0.0   0.00   0.030   0.126   0.144   0.179   0.182   0.165   0.166   0.077
 2004 059   142   126    42      2     43    157     0     0    90    0.21   0.0   0.0   0.00   0.207   0.157   0.151   0.178   0.182   0.165   0.166   0.077
 2004 060   143   122    38      2     43    157     0     0    90    0.18   0.0   0.0   0.00   0.155   0.150   0.151   0.186   0.181   0.162   0.164   0.076
 2004 061   144   126    42      2     43    164     0     0    90    0.22   0.0   0.0   0.00   0.194   0.160   0.163   0.188   0.181   0.160   0.162   0.075
 2004 062   145   123    39      2     43    164     0     0    90    0.20   0.0   0.0   0.00   0.155   0.155   0.162   0.189   0.182   0.158   0.160   0.075
 2004 063   146   119    35      2     43    164     0     0    90    0.18   0.0   0.0   0.00   0.137   0.148   0.153   0.186   0.179   0.156   0.158   0.074
 2004 064   147   119    35      2     43    164     0     0    90    0.15   0.0   0.0   0.00   0.128   0.148   0.153   0.186   0.179   0.156   0.158   0.074
 2004 065   148   118    34      2     43    164     0     0    90    0.13   0.0   0.0   0.00   0.119   0.147   0.153   0.186   0.179   0.156   0.158   0.074
 2004 066   149   118    34      2     43    164     0     0    90    0.11   0.0   0.0   0.00   0.111   0.146   0.152   0.185   0.179   0.156   0.158   0.074
 2004 067   150   117    33      2     43    164     0     0    90    0.10   0.0   0.0   0.00   0.104   0.146   0.152   0.185   0.179   0.156   0.158   0.074
 2004 068   151   117    33      2     43    164     0     0    90    0.09   0.0   0.0   0.00   0.097   0.145   0.152   0.185   0.179   0.156   0.158   0.074
 2004 069   152   116    33      2     43    164     0     0    90    0.08   0.0   0.0   0.00   0.091   0.144   0.152   0.185   0.179   0.156   0.158   0.074
 2004 070   153   116    32      2     43    164     0     0    90    0.07   0.0   0.0   0.00   0.086   0.144   0.152   0.185   0.179   0.156   0.158   0.074
 2004 071   154   116    32      2     43    164     0     0    90    0.06   0.0   0.0   0.00   0.080   0.143   0.151   0.185   0.179   0.155   0.158   0.074
 2004 072   155   115    31      2     43    164     0     0    90    0.05   0.0   0.0   0.00   0.076   0.143   0.151   0.185   0.179   0.155   0.158   0.074
 2004 073   156   115    31      2     43    164     0     0    90    0.04   0.0   0.0   0.00   0.071   0.142   0.151   0.185   0.179   0.155   0.158   0.074
 2004 074   157   115    31      2     43    164     0     0    90    0.04   0.0   0.0   0.00   0.068   0.141   0.151   0.184   0.179   0.155   0.157   0.074
 2004 075   158   115    31      2     43    164     0     0    90    0.03   0.0   0.0   0.00   0.064   0.141   0.151   0.184   0.179   0.155   0.157   0.074
 2004 076   159   114    30      2     43    164     0     0    90    0.03   0.0   0.0   0.00   0.061   0.140   0.150   0.184   0.179   0.155   0.157   0.074
 2004 077   160   114    30      2     43    164     0     0    90    0.03   0.0   0.0   0.00   0.058   0.140   0.150   0.184   0.179   0.155   0.157   0.074
 2004 078   161   114    30      2     43    164     0     0    90    0.02   0.0   0.0   0.00   0.055   0.139   0.150   0.184   0.178   0.155   0.157   0.074
 2004 079   162   114    30      2     43    164     0     0    90    0.02   0.0   0.0   0.00   0.052   0.138   0.150   0.184   0.178   0.155   0.157   0.074
 2004 080   163   113    29      2     43    164     0     0    90    0.02   0.0   0.0   0.00   0.050   0.138   0.149   0.184   0.178   0.155   0.157   0.074
 2004 081   164   113    29      2     43    164     0     0    90    0.01   0.0   0.0   0.00   0.048   0.137   0.149   0.184   0.178   0.155   0.157   0.074
 2004 082   165   113    29      2     43    164     0     0    90    0.01   0.0   0.0   0.00   0.046   0.137   0.149   0.183   0.178   0.155   0.157   0.074
 2004 083   166   113    29      2     43    164     0     0    90    0.01   0.0   0.0   0.00   0.044   0.136   0.149   0.183   0.178   0.155   0.157   0.074
 2004 084   167   113    29      2     43    164     0     0    90    0.01   0.0   0.0   0.00   0.043   0.135   0.149   0.183   0.178   0.155   0.157   0.074
 2004 085   168   112    29      2     43    164     0     0    90    0.01   0.0   0.0   0.00   0.041   0.135   0.148   0.183   0.178   0.155   0.157   0.074
 2004 086   169   112    28      2     43    164     0     0    90    0.01   0.0   0.0   0.00   0.040   0.134   0.148   0.183   0.178   0.155   0.157   0.074
 2004 087   170   112    28      2     43    164     0     0    90    0.01   0.0   0.0   0.00   0.039   0.134   0.148   0.183   0.178   0.155   0.157   0.074
 2004 088   171   112    28      2     43    164     0     0    90    0.01   0.0   0.0   0.00   0.038   0.133   0.148   0.183   0.178   0.155   0.157   0.074
 2004 089   172   120    36      2     43    173     0     0    90    0.19   0.0   0.0   0.00   0.168   0.144   0.148   0.183   0.178   0.155   0.157   0.074
 2004 090   173   122    38      2     43    179     0     0    90    0.16   0.0   0.0   0.00   0.195   0.159   0.160   0.186   0.175   0.153   0.155   0.073
 2004 091   174   119    35      2     43    179     0     0    90    0.14   0.0   0.0   0.00   0.151   0.150   0.152   0.186   0.183   0.151   0.153   0.072
 2004 092   175   118    35      2     43    179     0     0    90    0.13   0.0   0.0   0.00   0.141   0.149   0.152   0.186   0.183   0.151   0.153   0.072
 2004 093   176   118    34      2     43    179     0     0    90    0.11   0.0   0.0   0.00   0.131   0.148   0.152   0.186   0.183   0.151   0.153   0.072
 2004 094   177   117    33      2     43    179     0     0    90    0.10   0.0   0.0   0.00   0.122   0.148   0.152   0.185   0.183   0.151   0.153   0.072
 2004 095   178   117    33      2     43    179     0     0    90    0.09   0.0   0.0   0.00   0.114   0.147   0.151   0.185   0.183   0.151   0.153   0.072
 2004 096   179   116    32      2     43    179     0     0    90    0.08   0.0   0.0   0.00   0.106   0.146   0.151   0.185   0.183   0.151   0.153   0.072
 2004 097   180   116    32      2     43    179     0     0    90    0.07   0.0   0.0   0.00   0.099   0.146   0.151   0.185   0.182   0.151   0.153   0.072
 2004 098   181   115    32      2     43    179     0     0    90    0.06   0.0   0.0   0.00   0.093   0.145   0.151   0.185   0.182   0.150   0.153   0.072
 2004 099   182   120    36      2     43    186     0     0    90    0.17   0.0   0.0   0.00   0.179   0.154   0.155   0.185   0.179   0.148   0.152   0.072
 2004 100   183   117    33      2     43    186     0     0    90    0.15   0.0   0.0   0.00   0.146   0.148   0.151   0.186   0.177   0.146   0.150   0.071
 2004 101   184   123    39      2     43    196     0     0    90    0.17   0.0   0.0   0.00   0.218   0.165   0.169   0.190   0.180   0.145   0.148   0.070
 2004 102   185   120    36      2     43    196     0     0    90    0.15   0.0   0.0   0.00   0.159   0.152   0.156   0.186   0.187   0.161   0.146   0.070
 2004 103   186   117    33      2     43    196     0     0    90    0.13   0.0   0.0   0.00   0.139   0.147   0.151   0.182   0.184   0.159   0.144   0.069
 2004 104   187   116    32      2     43    196     0     0    90    0.12   0.0   0.0   0.00   0.129   0.146   0.151   0.182   0.183   0.159   0.144   0.069
 2004 105   188   137    53      2     43    220     0     0    90    0.16   0.0   0.0   0.00   0.237   0.214   0.228   0.206   0.196   0.169   0.145   0.068
 2004 106   189   129    46      2     47    220     0     0    90    0.14   0.0   0.0   0.00   0.166   0.171   0.179   0.192   0.189   0.168   0.168   0.078
 2004 107   190   125    41      2     48    220     0     0    90    0.13   0.0   0.0   0.00   0.141   0.154   0.160   0.188   0.187   0.168   0.168   0.078
 2004 108   191   122    38      2     48    220     0     0    90    0.11   0.0   0.0   0.00   0.125   0.147   0.152   0.185   0.183   0.165   0.166   0.077
 2004 109   192   121    37      2     48    220     0     0    90    0.10   0.0   0.0   0.00   0.117   0.147   0.152   0.185   0.183   0.165   0.166   0.077
 2004 110   193   121    37      2     48    220     0     0    90    0.09   0.0   0.0   0.00   0.109   0.146   0.152   0.185   0.183   0.165   0.166   0.077
 2004 111   194   127    43      2     48    230     0     0    90    0.15   0.0   0.0   0.00   0.200   0.160   0.163   0.187   0.183   0.163   0.164   0.077
 2004 112   195   123    40      2     48    230     0     0    90    0.13   0.0   0.0   0.00   0.153   0.150   0.153   0.186   0.187   0.168   0.163   0.076
 2004 113   196   130    46      2     48    240     0     0    90    0.15   0.0   0.0   0.00   0.222   0.167   0.173   0.191   0.188   0.168   0.161   0.075
 2004 114   197   126    42      2     49    240     0     0    90    0.13   0.0   0.0   0.00   0.161   0.153   0.157   0.187   0.187   0.168   0.168   0.078
 2004 115   198   124    40      2     49    241     0     0    90    0.14   0.0   0.0   0.00   0.154   0.152   0.155   0.186   0.183   0.165   0.166   0.077
 2004 116   199   121    37      2     49    241     0     0    90    0.13   0.0   0.0   0.00   0.136   0.145   0.151   0.182   0.180   0.163   0.164   0.077
 2004 117   200   121    37      2     49    243     0     0    90    0.14   0.0   0.0   0.00   0.147   0.146   0.151   0.182   0.180   0.163   0.164   0.077
 2004 118   201   121    37      2     49    243     0     0    90    0.13   0.0   0.0   0.00   0.137   0.145   0.150   0.182   0.180   0.163   0.164   0.077
 2004 119   202   120    36      2     49    243     0     0    90    0.12   0.0   0.0   0.00   0.127   0.144   0.150   0.182   0.180   0.163   0.164   0.077
 2004 120   203   137    53      2     49    263     0     0    90    0.14   0.0   0.0   0.00   0.237   0.198   0.209   0.200   0.191   0.168   0.162   0.076
 2004 121   204   128    44      2     54    263     0     0    90    0.12   0.0   0.0   0.00   0.166   0.165   0.171   0.190   0.188   0.168   0.168   0.078
 2004 122   205   124    40      2     55    263     0     0    90    0.11   0.0   0.0   0.00   0.141   0.152   0.157   0.186   0.187   0.168   0.168   0.078
 2004 123   206   121    37      2     55    263     0     0    90    0.10   0.0   0.0   0.00   0.125   0.145   0.152   0.182   0.183   0.165   0.166   0.077
 2004 124   207   121    37      2     55    263     0     0    90    0.09   0.0   0.0   0.00   0.117   0.145   0.152   0.182   0.183   0.165   0.166   0.077
 2004 125   208   125    41      2     55    268     0     0    90    0.13   0.0   0.0   0.00   0.174   0.157   0.157   0.183   0.183   0.165   0.166   0.077
 2004 126   209   123    39      2     55    270     0     0    90    0.13   0.0   0.0   0.00   0.156   0.154   0.158   0.185   0.180   0.163   0.164   0.077
 2004 127   210   120    36      2     55    270     0     0    90    0.11   0.0   0.0   0.00   0.138   0.147   0.152   0.182   0.177   0.161   0.162   0.076
 2004 128   211   120    36      2     55    270     0     0    90    0.10   0.0   0.0   0.00   0.129   0.147   0.151   0.182   0.177   0.161   0.162   0.076
 2004 129   212   119    35      2     55    270     0     0    90    0.10   0.0   0.0   0.00   0.120   0.146   0.151   0.182   0.177   0.161   0.162   0.076
 2004 130   213   119    35      2     55    270     0     0    90    0.09   0.0   0.0   0.00   0.112   0.145   0.151   0.182   0.177   0.161   0.162   0.076
 2004 131   214   118    34      2     55    270     0     0    90    0.08   0.0   0.0   0.00   0.105   0.145   0.151   0.181   0.177   0.160   0.162   0.076
 2004 132   215   123    39      2     55    278     0     0    90    0.12   0.0   0.0   0.00   0.190   0.157   0.159   0.184   0.174   0.158   0.160   0.075
 2004 133   216   120    36      2     55    278     0     0    90    0.11   0.0   0.0   0.00   0.149   0.150   0.152   0.186   0.176   0.156   0.158   0.074
 2004 134   217   119    35      2     55    278     0     0    90    0.10   0.0   0.0   0.00   0.139   0.149   0.152   0.186   0.176   0.156   0.158   0.074
 2004 135   218   126    42      2     55    288     0     0    90    0.12   0.0   0.0   0.00   0.220   0.166   0.171   0.190   0.179   0.154   0.156   0.074
 2004 136   219   125    41      2     55    291     0     0    90    0.12   0.0   0.0   0.00   0.184   0.165   0.177   0.194   0.189   0.152   0.154   0.073
 2004 137   220   122    38      2     55    291     0     0    90    0.11   0.0   0.0   0.00   0.148   0.152   0.159   0.187   0.187   0.168   0.156   0.072
 2004 138   221   119    35      2     55    291     0     0    90    0.10   0.0   0.0   0.00   0.131   0.145   0.152   0.184   0.183   0.165   0.154   0.072
 2004 139   222   118    35      2     55    291     0     0    90    0.09   0.0   0.0   0.00   0.122   0.145   0.152   0.184   0.183   0.165   0.154   0.072
 2004 140   223   143    59      2     55    319     0     0    90    0.12   0.0   0.0   0.18   0.237   0.227   0.240   0.213   0.200   0.174   0.162   0.071
 2004 141   224   131    47      2     63    319     0     0    90    0.11   0.0   0.0   0.00   0.166   0.176   0.183   0.195   0.191   0.169   0.168   0.078
 2004 142   225   125    41      2     65    319     0     0    90    0.10   0.0   0.0   0.00   0.141   0.156   0.161   0.188   0.187   0.168   0.168   0.078
 2004 143   226   122    38      2     65    319     0     0    90    0.09   0.0   0.0   0.00   0.125   0.149   0.153   0.185   0.184   0.165   0.166   0.077
 2004 144   227   126    42      2     65    327     0     0    90    0.11   0.0   0.0   0.00   0.191   0.159   0.162   0.188   0.184   0.163   0.164   0.077
 2004 145   228   123    39      2     65    327     0     0    90    0.10   0.0   0.0   0.00   0.150   0.150   0.153   0.186   0.187   0.167   0.162   0.076
 2004 146   229   122    39      2     65    327     0     0    90    0.10   0.0   0.0   0.00   0.139   0.149   0.153   0.186   0.187   0.167   0.162   0.076
 2004 147   230   148    64      3     65    356     0     0    90    0.11   0.0   0.0   0.38   0.242   0.237   0.242   0.220   0.206   0.178   0.171   0.077
 2004 148   231   132    48      3     78    356     0     0    90    0.10   0.0   0.0   0.00   0.167   0.179   0.184   0.197   0.193   0.171   0.169   0.078
 2004 149   232   134    50      3     78    362     0     0    90    0.11   0.0   0.0   0.00   0.191   0.171   0.189   0.200   0.197   0.174   0.171   0.079
 2004 150   233   137    53      3     79    368     0     0    88    0.11   0.0   0.0   0.00   0.209   0.172   0.192   0.203   0.200   0.177   0.174   0.080
 2004 151   234   127    43      3     84    368     0     0    90    0.10   0.0   0.0   0.00   0.156   0.155   0.165   0.191   0.191   0.170   0.170   0.079
 2004 152   235   124    40      3     85    368     0     0    90    0.09   0.0   0.0   0.00   0.138   0.148   0.154   0.187   0.187   0.168   0.168   0.078
 2004 153   236   123    39      3     85    371     0     0    90    0.11   0.0   0.0   0.00   0.154   0.150   0.153   0.183   0.184   0.166   0.166   0.077
 2004 154   237   132    48      3     85    382     0     0    90    0.10   0.0   0.0   0.00   0.239   0.172   0.178   0.192   0.189   0.164   0.164   0.077
 2004 155   238   126    42      3     87    382     0     0    90    0.10   0.0   0.0   0.00   0.166   0.155   0.159   0.187   0.187   0.168   0.168   0.078
 2004 156   239   123    39      3     87    382     0     0    90    0.09   0.0   0.0   0.00   0.141   0.148   0.152   0.186   0.185   0.165   0.166   0.077
 2004 157   240   122    38      3     87    382     0     0    90    0.08   0.0   0.0   0.00   0.132   0.148   0.152   0.186   0.185   0.165   0.166   0.077
 2004 158   241   122    38      3     87    382     0     0    90    0.08   0.0   0.0   0.00   0.122   0.147   0.152   0.186   0.185   0.165   0.166   0.077
 2004 159   242   122    38      3     87    383     0     0    90    0.10   0.0   0.0   0.00   0.119   0.146   0.151   0.185   0.185   0.165   0.166   0.077
 2004 160   243   121    37      3     87    383     0     0    90    0.09   0.0   0.0   0.00   0.111   0.146   0.151   0.185   0.185   0.165   0.166   0.077
 2004 161   244   121    37      3     87    383     0     0    90    0.08   0.0   0.0   0.00   0.104   0.145   0.151   0.185   0.185   0.165   0.166   0.077
 2004 162   245   120    36      3     87    383     0     0    90    0.08   0.0   0.0   0.00   0.097   0.144   0.151   0.185   0.185   0.165   0.166   0.077
 2004 163   246   125    41      3     87    390     0     0    90    0.10   0.0   0.0   0.00   0.181   0.154   0.156   0.185   0.182   0.163   0.164   0.077
 2004 164   247   127    43      3     87    396     0     0    90    0.10   0.0   0.0   0.00   0.197   0.163   0.168   0.189   0.184   0.161   0.162   0.076
 2004 165   248   124    40      3     87    396     0     0    90    0.10   0.0   0.0   0.00   0.155   0.156   0.165   0.190   0.187   0.158   0.160   0.075
 2004 166   249   156    72      6     87    435     0     0    85    0.10   0.0   0.0   2.76   0.235   0.237   0.240   0.254   0.231   0.181   0.180   0.081
 2004 167   250   149    65      6     93    437     0     0    80    0.10   0.0   0.0   0.00   0.189   0.194   0.237   0.238   0.235   0.182   0.182   0.082
 2004 168   251   132    48      6    106    437     0     0    88    0.09   0.0   0.0   0.00   0.149   0.163   0.182   0.205   0.204   0.172   0.173   0.080
 2004 169   252   133    49      6    107    441     0     0    87    0.10   0.0   0.0   0.00   0.177   0.161   0.176   0.200   0.201   0.177   0.175   0.080
 2004 170   253   126    42      6    111    441     0     0    90    0.09   0.0   0.0   0.00   0.145   0.151   0.159   0.190   0.191   0.170   0.170   0.079
 2004 171   254   123    39      6    111    441     0     0    90    0.08   0.0   0.0   0.00   0.129   0.144   0.152   0.186   0.188   0.168   0.168   0.078
 2004 172   255   129    45      6    111    450     0     0    90    0.09   0.0   0.0   0.00   0.207   0.161   0.164   0.188   0.188   0.166   0.166   0.078
 2004 173   256   126    42      6    111    451     0     0    90    0.09   0.0   0.0   0.00   0.161   0.157   0.165   0.189   0.188   0.166   0.164   0.077
 2004 174   257   123    39      6    111    451     0     0    90    0.09   0.0   0.0   0.00   0.140   0.150   0.154   0.186   0.187   0.166   0.162   0.076
 2004 175   258   122    38      6    111    451     0     0    90    0.08   0.0   0.0   0.00   0.130   0.149   0.154   0.186   0.187   0.166   0.162   0.076
 2004 176   259   121    37      6    111    451     0     0    90    0.08   0.0   0.0   0.00   0.121   0.149   0.154   0.186   0.187   0.165   0.162   0.076
 2004 177   260   121    37      6    111    451     0     0    90    0.07   0.0   0.0   0.00   0.113   0.148   0.153   0.185   0.187   0.165   0.162   0.076
 2004 178   261   128    44      6    111    461     0     0    90    0.09   0.0   0.0   0.00   0.210   0.162   0.166   0.189   0.188   0.163   0.160   0.075
 2004 179   262   134    50      6    111    471     0     0    90    0.09   0.0   0.0   0.00   0.230   0.180   0.194   0.199   0.194   0.169   0.160   0.075
 2004 180   263   127    43      6    114    471     0     0    90    0.08   0.0   0.0   0.00   0.162   0.157   0.165   0.189   0.188   0.168   0.168   0.078
 2004 181   264   123    39      6    114    471     0     0    90    0.08   0.0   0.0   0.00   0.138   0.150   0.153   0.186   0.187   0.167   0.166   0.077
 2004 182   265   149    65      6    114    501     0     0    90    0.09   0.0   0.0   0.54   0.237   0.237   0.240   0.220   0.206   0.178   0.173   0.079
 2004 183   266   132    48      6    127    501     0     0    90    0.08   0.0   0.0   0.00   0.163   0.178   0.181   0.197   0.193   0.171   0.171   0.078
 2004 184   267   125    41      6    130    501     0     0    90    0.08   0.0   0.0   0.00   0.138   0.156   0.159   0.188   0.189   0.168   0.169   0.078
 2004 185   268   144    60      6    130    522     0     0    88    0.09   0.0   0.0   0.00   0.249   0.210   0.224   0.208   0.201   0.176   0.172   0.080
 2004 186   269   139    55      6    131    522     0     0    86    0.09   0.0   0.0   0.00   0.176   0.178   0.213   0.211   0.207   0.181   0.178   0.080
 2004 187   270   158    74      8    138    555     0     0    80    0.09   0.0   0.0   1.44   0.234   0.236   0.238   0.253   0.246   0.181   0.182   0.082
 2004 188   271   153    69      8    146    564     0     0    80    0.09   0.0   0.0   0.00   0.227   0.207   0.236   0.244   0.243   0.181   0.181   0.082
 2004 189   272   144    60      8    153    565     0     0    80    0.09   0.0   0.0   0.00   0.177   0.178   0.217   0.226   0.231   0.181   0.182   0.082
 2004 190   273   140    56      8    157    568     0     0    80    0.09   0.0   0.0   0.00   0.178   0.167   0.196   0.214   0.219   0.181   0.182   0.082
 2004 191   274   143    59      8    161    580     0     0    80    0.08   0.0   0.0   0.00   0.231   0.179   0.203   0.210   0.211   0.180   0.181   0.082
 2004 192   275   148    64      8    164    592     0     0    80    0.08   0.0   0.0   0.00   0.239   0.201   0.231   0.218   0.214   0.181   0.182   0.082
 2004 193   276   142    59      8    168    594     0     0    80    0.08   0.0   0.0   0.00   0.191   0.179   0.216   0.217   0.214   0.181   0.182   0.082
 2004 194   277   129    45      8    177    594     0     0    88    0.08   0.0   0.0   0.00   0.150   0.157   0.173   0.195   0.195   0.172   0.173   0.080
 2004 195   278   148    64      8    178    620     0     0    85    0.08   0.0   0.0   0.17   0.231   0.224   0.236   0.219   0.206   0.180   0.178   0.081
 2004 196   279   133    49      8    191    620     0     0    87    0.08   0.0   0.0   0.00   0.171   0.177   0.182   0.198   0.193   0.172   0.171   0.080
 2004 197   280   125    41      8    194    620     0     0    89    0.07   0.0   0.0   0.00   0.139   0.154   0.157   0.187   0.187   0.169   0.169   0.079
 2004 198   281   121    37      8    194    620     0     0    90    0.07   0.0   0.0   0.00   0.120   0.145   0.149   0.180   0.181   0.166   0.166   0.079
 2004 199   282   136    52      8    194    637     0     0    90    0.08   0.0   0.0   0.00   0.248   0.187   0.192   0.195   0.188   0.167   0.165   0.078
 2004 200   283   127    43      8    199    637     0     0    90    0.08   0.0   0.0   0.00   0.169   0.159   0.162   0.186   0.185   0.168   0.168   0.078
 2004 201   284   122    38      8    199    637     0     0    90    0.07   0.0   0.0   0.00   0.137   0.146   0.149   0.183   0.183   0.165   0.165   0.078
 2004 202   285   120    36      8    199    637     0     0    90    0.07   0.0   0.0   0.00   0.125   0.143   0.145   0.181   0.180   0.164   0.165   0.078
 2004 203   286   136    52      8    199    655     0     0    90    0.08   0.0   0.0   0.00   0.247   0.190   0.195   0.196   0.189   0.166   0.164   0.077
 2004 204   287   126    42      8    204    655     0     0    90    0.08   0.0   0.0   0.00   0.165   0.158   0.162   0.186   0.184   0.167   0.168   0.078
 2004 205   288   122    38      8    204    655     0     0    90    0.07   0.0   0.0   0.00   0.137   0.146   0.149   0.184   0.181   0.164   0.165   0.077
 2004 206   289   120    36      8    204    655     0     0    90    0.07   0.0   0.0   0.00   0.125   0.144   0.147   0.182   0.179   0.164   0.165   0.077
 2004 207   290   119    35      8    204    655     0     0    90    0.06   0.0   0.0   0.00   0.116   0.140   0.143   0.180   0.177   0.164   0.165   0.077
 2004 208   291   117    34      8    204    655     0     0    90    0.06   0.0   0.0   0.00   0.108   0.137   0.139   0.178   0.175   0.164   0.165   0.077
 2004 209   292   127    43      8    204    668     0     0    90    0.08   0.0   0.0   0.00   0.236   0.163   0.160   0.183   0.172   0.161   0.163   0.077
 2004 210   293   126    42      8    204    671     0     0    90    0.08   0.0   0.0   0.00   0.190   0.163   0.170   0.189   0.174   0.159   0.161   0.076
 2004 211   294   121    38      8    204    671     0     0    90    0.07   0.0   0.0   0.00   0.146   0.149   0.153   0.184   0.186   0.160   0.159   0.076
 2004 212   295   121    37      8    204    674     0     0    90    0.08   0.0   0.0   0.00   0.163   0.151   0.152   0.182   0.181   0.159   0.157   0.075
 2004 213   296   122    39      8    204    679     0     0    90    0.08   0.0   0.0   0.00   0.184   0.157   0.159   0.185   0.177   0.156   0.156   0.074
 2004 214   297   118    34      8    204    679     0     0    90    0.07   0.0   0.0   0.00   0.144   0.147   0.149   0.184   0.177   0.154   0.154   0.074
 2004 215   298   129    46      8    204    695     0     0    90    0.08   0.0   0.0   0.00   0.233   0.180   0.187   0.194   0.187   0.152   0.152   0.073
 2004 216   299   129    45      8    204    699     0     0    90    0.07   0.0   0.0   0.00   0.200   0.172   0.192   0.199   0.193   0.162   0.150   0.072
 2004 217   300   155    71      9    204    729     0     0    90    0.07   0.0   0.0   1.18   0.243   0.239   0.240   0.252   0.227   0.182   0.177   0.076
 2004 218   301   152    68      9    208    736     0     0    80    0.07   0.0   0.0   0.00   0.232   0.203   0.237   0.242   0.235   0.181   0.181   0.082
 2004 219   302   143    59      9    214    736     0     0    80    0.07   0.0   0.0   0.00   0.173   0.174   0.213   0.226   0.228   0.181   0.181   0.082
 2004 220   303   136    52      9    218    737     0     0    80    0.07   0.0   0.0   0.00   0.152   0.157   0.185   0.209   0.215   0.180   0.181   0.082
 2004 221   304   156    72      9    223    765     0     0    79    0.07   0.0   0.0   0.52   0.245   0.239   0.240   0.236   0.226   0.182   0.182   0.083
 2004 222   305   137    53      9    237    765     0     0    62    0.07   0.0   0.0   0.00   0.167   0.178   0.181   0.202   0.199   0.172   0.176   0.088
 2004 223   306   128    44      9    243    765     0     0    81    0.07   0.0   0.0   0.00   0.146   0.158   0.160   0.191   0.190   0.170   0.171   0.082
 2004 224   307   132    48      9    244    773     0     0    86    0.07   0.0   0.0   0.00   0.208   0.166   0.172   0.194   0.191   0.171   0.171   0.080
 2004 225   308   125    41      9    247    773     0     0    89    0.07   0.0   0.0   0.00   0.153   0.150   0.154   0.186   0.187   0.168   0.168   0.079
 2004 226   309   158    74     16    252    823     0     0    80    0.07   0.0   0.0   6.60   0.232   0.235   0.237   0.252   0.248   0.181   0.181   0.082
 2004 227   310   140    56     16    267    823     0     0    62    0.07   0.0   0.0   0.00   0.170   0.180   0.182   0.211   0.210   0.172   0.189   0.088
 2004 228   311   155    71     17    274    850     0     0    80    0.07   0.0   0.0   0.64   0.231   0.234   0.237   0.242   0.228   0.181   0.181   0.082
 2004 229   312   135    52     17    288    850     0     0    66    0.07   0.0   0.0   0.00   0.161   0.175   0.179   0.205   0.200   0.171   0.172   0.087
 2004 230   313   127    43     17    294    850     0     0    82    0.06   0.0   0.0   0.00   0.140   0.155   0.158   0.191   0.190   0.169   0.170   0.082
 2004 231   314   123    39     17    294    850     0     0    85    0.06   0.0   0.0   0.00   0.122   0.146   0.149   0.185   0.185   0.167   0.168   0.081
 2004 232   315   124    40     17    294    856     0     0    87    0.07   0.0   0.0   0.00   0.169   0.150   0.150   0.182   0.181   0.165   0.165   0.080
 2004 233   316   121    37     17    294    856     0     0    89    0.07   0.0   0.0   0.00   0.143   0.146   0.144   0.177   0.177   0.163   0.163   0.079
 2004 234   317   118    34     17    294    856     0     0    90    0.06   0.0   0.0   0.00   0.129   0.139   0.139   0.174   0.174   0.161   0.162   0.079
 2004 235   318   160    76     26    297    913     0     0    80    0.07   0.0   0.0   9.33   0.245   0.238   0.240   0.255   0.248   0.182   0.182   0.082
 2004 236   319   152    68     26    305    916     0     0    79    0.07   0.0   0.0   0.00   0.207   0.198   0.241   0.241   0.243   0.182   0.182   0.083
 2004 237   320   133    49     26    319    916     0     0    82    0.06   0.0   0.0   0.00   0.153   0.162   0.181   0.204   0.206   0.172   0.172   0.082
 2004 238   321   141    57     26    320    930     0     0    84    0.07   0.0   0.0   0.00   0.233   0.182   0.202   0.206   0.205   0.180   0.176   0.081
 2004 239   322   138    54     26    322    932     0     0    83    0.07   0.0   0.0   0.00   0.188   0.170   0.195   0.206   0.204   0.181   0.180   0.081
 2004 240   323   127    43     26    328    932     0     0    85    0.06   0.0   0.0   0.00   0.146   0.151   0.163   0.190   0.191   0.171   0.171   0.081
 2004 241   324   127    43     26    328    935     0     0    85    0.07   0.0   0.0   0.00   0.159   0.151   0.157   0.188   0.188   0.169   0.170   0.081
 2004 242   325   127    43     26    328    939     0     0    87    0.07   0.0   0.0   0.00   0.174   0.154   0.158   0.187   0.187   0.167   0.167   0.080
 2004 243   326   123    39     26    328    939     0     0    90    0.06   0.0   0.0   0.00   0.141   0.145   0.149   0.184   0.184   0.164   0.165   0.079
 2004 244   327   146    63     26    328    968     0     0    89    0.07   0.0   0.0   0.42   0.237   0.230   0.239   0.214   0.201   0.174   0.170   0.079
 2004 245   328   130    46     26    340    968     0     0    90    0.06   0.0   0.0   0.00   0.164   0.175   0.181   0.194   0.190   0.169   0.168   0.079
 2004 246   329   155    71     27    341    997     0     0    84    0.07   0.0   0.0   0.91   0.245   0.240   0.241   0.242   0.220   0.182   0.182   0.081
 2004 247   330   154    70     27    348   1009     0     0    80    0.06   0.0   0.0   0.00   0.226   0.217   0.236   0.248   0.236   0.181   0.181   0.082
 2004 248   331   144    60     27    354   1009     0     0    80    0.06   0.0   0.0   0.00   0.166   0.178   0.218   0.228   0.230   0.181   0.181   0.082
 2004 249   332   129    45     27    364   1009     0     0    89    0.06   0.0   0.0   0.00   0.139   0.155   0.172   0.199   0.201   0.171   0.172   0.079
 2004 250   333   130    46     27    364   1014     0     0    84    0.06   0.0   0.0   0.00   0.170   0.155   0.165   0.194   0.195   0.174   0.172   0.081
 2004 251   334   131    47     27    364   1019     0     0    87    0.06   0.0   0.0   0.00   0.187   0.159   0.168   0.192   0.192   0.173   0.172   0.080
 2004 252   335   125    41     27    366   1019     0     0    90    0.06   0.0   0.0   0.00   0.146   0.148   0.153   0.187   0.188   0.170   0.170   0.079
 2004 253   336   121    37     27    366   1019     0     0    90    0.06   0.0   0.0   0.00   0.128   0.140   0.148   0.182   0.184   0.168   0.167   0.078
 2004 254   337   120    37     27    366   1019     0     0    90    0.06   0.0   0.0   0.00   0.119   0.138   0.146   0.181   0.183   0.167   0.167   0.078
 2004 255   338   137    53     27    366   1038     0     0    90    0.06   0.0   0.0   0.00   0.241   0.191   0.198   0.197   0.190   0.169   0.167   0.078
 2004 256   339   138    54     27    366   1043     0     0    90    0.06   0.0   0.0   0.00   0.217   0.182   0.208   0.206   0.199   0.175   0.172   0.079
 2004 257   340   152    68     27    368   1064     0     0    81    0.06   0.0   0.0   0.10   0.229   0.227   0.237   0.233   0.218   0.181   0.181   0.082
 2004 258   341   147    63     27    373   1069     0     0    80    0.06   0.0   0.0   0.00   0.207   0.192   0.236   0.228   0.223   0.181   0.181   0.082
 2004 259   342   157    73     28    380   1090     0     0    80    0.06   0.0   0.0   0.17   0.236   0.235   0.239   0.252   0.239   0.181   0.182   0.082
 2004 260   343   140    56     28    394   1090     0     0    62    0.06   0.0   0.0   0.00   0.168   0.179   0.183   0.210   0.206   0.172   0.187   0.088
 2004 261   344   128    44     28    402   1090     0     0    81    0.06   0.0   0.0   0.00   0.141   0.156   0.160   0.193   0.192   0.170   0.174   0.082
 2004 262   345   124    40     28    402   1090     0     0    84    0.05   0.0   0.0   0.00   0.123   0.148   0.151   0.188   0.188   0.167   0.169   0.081
 2004 263   346   137    54     28    402   1108     0     0    84    0.06   0.0   0.0   0.00   0.237   0.186   0.194   0.198   0.193   0.171   0.169   0.081
 2004 264   347   138    55     28    403   1113     0     0    87    0.06   0.0   0.0   0.00   0.218   0.180   0.204   0.205   0.199   0.176   0.173   0.080
 2004 265   348   139    55     28    404   1118     0     0    85    0.06   0.0   0.0   0.00   0.205   0.175   0.201   0.208   0.204   0.180   0.177   0.081
 2004 266   349   128    44     28    411   1118     0     0    88    0.06   0.0   0.0   0.00   0.153   0.154   0.167   0.192   0.191   0.171   0.170   0.080
 2004 267   350   130    46     28    411   1124     0     0    87    0.06   0.0   0.0   0.00   0.188   0.159   0.169   0.192   0.191   0.171   0.170   0.080
 2004 268   351   125    41     28    413   1124     0     0    89    0.06   0.0   0.0   0.00   0.148   0.149   0.154   0.187   0.186   0.168   0.168   0.079
 2004 269   352   121    37     28    413   1124     0     0    90    0.06   0.0   0.0   0.00   0.129   0.141   0.148   0.182   0.182   0.166   0.166   0.079
 2004 270   353   128    44     28    413   1134     0     0    90    0.06   0.0   0.0   0.00   0.216   0.161   0.163   0.188   0.179   0.164   0.164   0.078
 2004 271   354   125    41     28    413   1135     0     0    90    0.06   0.0   0.0   0.00   0.169   0.158   0.165   0.189   0.182   0.161   0.162   0.077
 2004 272   355   121    37     28    413   1135     0     0    90    0.06   0.0   0.0   0.00   0.141   0.149   0.153   0.185   0.184   0.159   0.160   0.076
 2004 273   356   129    45     28    413   1147     0     0    90    0.06   0.0   0.0   0.00   0.231   0.168   0.173   0.191   0.188   0.157   0.158   0.076
 2004 274   357   125    41     28    413   1147     0     0    90    0.06   0.0   0.0   0.00   0.162   0.152   0.156   0.186   0.186   0.168   0.168   0.078
 2004 275   358   122    38     28    413   1147     0     0    90    0.05   0.0   0.0   0.00   0.139   0.146   0.150   0.181   0.182   0.165   0.166   0.077
 2004 276   359   121    37     28    413   1147     0     0    90    0.05   0.0   0.0   0.00   0.128   0.144   0.149   0.180   0.182   0.165   0.166   0.077
 2004 277   360   120    36     28    413   1147     0     0    90    0.05   0.0   0.0   0.00   0.119   0.143   0.148   0.180   0.181   0.165   0.166   0.077
 2004 278   361   121    37     28    413   1148     0     0    90    0.06   0.0   0.0   0.00   0.138   0.141   0.147   0.180   0.181   0.165   0.166   0.077
 2004 279   362   120    36     28    413   1148     0     0    90    0.05   0.0   0.0   0.00   0.127   0.140   0.146   0.179   0.180   0.165   0.166   0.077
 2004 280   363   119    35     28    413   1148     0     0    90    0.05   0.0   0.0   0.00   0.118   0.138   0.145   0.179   0.180   0.165   0.166   0.077
 2004 281   364   118    34     28    413   1148     0     0    90    0.05   0.0   0.0   0.00   0.110   0.137   0.144   0.178   0.180   0.165   0.166   0.077
 2004 282   365   118    34     28    413   1148     0     0    90    0.05   0.0   0.0   0.00   0.103   0.136   0.143   0.178   0.180   0.165   0.165   0.077
 2004 283   366   117    33     28    413   1148     0     0    90    0.05   0.0   0.0   0.00   0.097   0.135   0.142   0.178   0.179   0.165   0.165   0.077
 2004 284   367   117    33     28    413   1148     0     0    90    0.04   0.0   0.0   0.00   0.091   0.134   0.141   0.178   0.179   0.165   0.165   0.077
 2004 285   368   123    39     28    413   1155     0     0    90    0.06   0.0   0.0   0.00   0.176   0.152   0.140   0.177   0.179   0.165   0.165   0.077
 2004 286   369   119    36     28    413   1155     0     0    90    0.05   0.0   0.0   0.00   0.144   0.148   0.142   0.173   0.176   0.162   0.163   0.076
 2004 287   370   119    35     28    413   1155     0     0    90    0.05   0.0   0.0   0.00   0.134   0.147   0.141   0.173   0.176   0.162   0.163   0.076
 2004 288   371   118    34     28    413   1155     0     0    90    0.05   0.0   0.0   0.00   0.124   0.146   0.140   0.173   0.176   0.162   0.163   0.076
 2004 289   372   117    34     28    413   1155     0     0    90    0.05   0.0   0.0   0.00   0.116   0.145   0.140   0.173   0.175   0.162   0.163   0.076
 2004 290   373   117    33     28    413   1155     0     0    90    0.05   0.0   0.0   0.00   0.108   0.144   0.139   0.173   0.175   0.162   0.163   0.076
 2004 291   374   116    33     28    413   1155     0     0    90    0.04   0.0   0.0   0.00   0.101   0.143   0.139   0.173   0.175   0.162   0.163   0.076
 2004 292   375   116    32     28    413   1155     0     0    90    0.04   0.0   0.0   0.00   0.095   0.142   0.138   0.173   0.175   0.162   0.163   0.076
 2004 293   376   116    32     28    413   1155     0     0    90    0.04   0.0   0.0   0.00   0.089   0.141   0.138   0.172   0.175   0.162   0.163   0.076
 2004 294   377   115    31     28    413   1155     0     0    90    0.04   0.0   0.0   0.00   0.083   0.140   0.138   0.172   0.175   0.162   0.163   0.076

*DSSAT Cropping System Model Ver. 4.5.1.023 -Stub         NOV 07, 2014; 01:44:25
                                                                                
*RUN   2        : N0 P60                    MZCER045 GHWA0401    2              
 MODEL          : MZCER045 - Maize                                              
 EXPERIMENT     : GHWA0401 MZ ON-STATION NXP (EXPERIMENT NO.2) 9 TRT            
 DATA PATH      :                                                               
 TREATMENT  2   : N0 P60                    MZCER045                            
  
!                                                                                                 Soil water content (mm3/mm3) by soil depth (cm):
!                                                                                                 0-5    5-15   15-20   20-30   30-40   40-50   50-60   60-90
@YEAR DOY   DAS  SWTD  SWXD   ROFC   DRNC   PREC  IR#C  IRRC  DTWT    MWTD  TDFD  TDFC   ROFD    SW1D    SW2D    SW3D    SW4D    SW5D    SW6D    SW7D    SW8D    
 2003 282     0   123    39      0      0      0     0     0     0    0.45   0.0   0.0   0.00   0.150   0.150   0.150   0.190   0.190   0.170   0.170   0.070
 2003 283     1   122    38      0      0      0     0     0    45    0.24   0.0   0.0   0.00   0.139   0.149   0.150   0.190   0.190   0.170   0.170   0.070
 2003 284     2   122    38      0      0      1     0     0    90    0.55   0.0   0.0   0.00   0.137   0.149   0.150   0.190   0.190   0.170   0.170   0.070
 2003 285     3   126    42      0      0      8     0     0    90    0.71   0.0   0.0   0.00   0.195   0.160   0.162   0.190   0.189   0.171   0.168   0.069
 2003 286     4   123    39      0      0      9     0     0    90    0.56   0.0   0.0   0.00   0.154   0.155   0.161   0.189   0.188   0.170   0.166   0.069
 2003 287     5   128    44      0      0     17     0     0    90    0.87   0.0   0.0   0.00   0.208   0.165   0.173   0.192   0.190   0.170   0.167   0.068
 2003 288     6   160    77      1      9     62     0     0    79    0.65   0.0   0.0   0.79   0.241   0.240   0.242   0.255   0.256   0.182   0.182   0.083
 2003 289     7   156    72      1     17     69     0     0    79    0.85   0.0   0.0   0.00   0.238   0.207   0.244   0.247   0.250   0.183   0.183   0.083
 2003 290     8   153    69      1     25     76     0     0    79    0.66   0.0   0.0   0.00   0.243   0.196   0.241   0.237   0.241   0.182   0.182   0.083
 2003 291     9   143    59      1     31     76     0     0    80    0.54   0.0   0.0   0.00   0.174   0.173   0.214   0.223   0.229   0.181   0.181   0.082
 2003 292    10   130    46      1     41     76     0     0    89    0.33   0.0   0.0   0.00   0.144   0.155   0.173   0.199   0.202   0.172   0.172   0.079
 2003 293    11   125    41      1     43     76     0     0    90    0.21   0.0   0.0   0.00   0.128   0.148   0.158   0.189   0.191   0.169   0.170   0.079
 2003 294    12   122    38      1     43     76     0     0    90    0.13   0.0   0.0   0.00   0.114   0.142   0.153   0.185   0.188   0.167   0.168   0.078
 2003 295    13   121    37      1     43     76     0     0    90    0.08   0.0   0.0   0.00   0.106   0.141   0.153   0.185   0.188   0.167   0.168   0.078
 2003 296    14   126    43      1     43     85     0     0    90    0.67   0.0   0.0   0.00   0.191   0.156   0.158   0.187   0.185   0.165   0.166   0.077
 2003 297    15   125    41      1     43     87     0     0    90    0.43   0.0   0.0   0.00   0.168   0.157   0.162   0.188   0.185   0.162   0.164   0.076
 2003 298    16   122    38      1     43     87     0     0    90    0.28   0.0   0.0   0.00   0.142   0.150   0.153   0.186   0.185   0.160   0.162   0.076
 2003 299    17   121    37      1     43     87     0     0    90    0.18   0.0   0.0   0.00   0.132   0.149   0.153   0.186   0.185   0.160   0.162   0.076
 2003 300    18   121    37      1     43     87     0     0    90    0.12   0.0   0.0   0.00   0.123   0.149   0.153   0.186   0.185   0.160   0.162   0.076
 2003 301    19   120    36      1     43     87     0     0    90    0.08   0.0   0.0   0.00   0.114   0.148   0.152   0.185   0.185   0.160   0.162   0.076
 2003 302    20   120    36      1     43     87     0     0    90    0.05   0.0   0.0   0.00   0.107   0.147   0.152   0.185   0.185   0.160   0.162   0.076
 2003 303    21   124    40      1     43     93     0     0    90    0.58   0.0   0.0   0.00   0.168   0.157   0.157   0.187   0.185   0.160   0.162   0.076
 2003 304    22   121    37      1     43     93     0     0    90    0.39   0.0   0.0   0.00   0.142   0.150   0.152   0.186   0.182   0.158   0.160   0.075
 2003 305    23   120    36      1     43     93     0     0    90    0.27   0.0   0.0   0.00   0.132   0.149   0.152   0.186   0.182   0.158   0.160   0.075
 2003 306    24   120    36      1     43     93     0     0    90    0.18   0.0   0.0   0.00   0.123   0.149   0.152   0.186   0.182   0.158   0.160   0.075
 2003 307    25   119    35      1     43     93     0     0    90    0.13   0.0   0.0   0.00   0.115   0.148   0.151   0.185   0.182   0.158   0.160   0.075
 2003 308    26   119    35      1     43     93     0     0    90    0.09   0.0   0.0   0.00   0.107   0.147   0.151   0.185   0.182   0.158   0.160   0.075
 2003 309    27   118    34      1     43     93     0     0    90    0.06   0.0   0.0   0.00   0.100   0.147   0.151   0.185   0.182   0.158   0.160   0.075
 2003 310    28   129    45      1     43    108     0     0    90    0.52   0.0   0.0   0.00   0.239   0.169   0.174   0.191   0.187   0.155   0.158   0.074
 2003 311    29   134    50      1     43    116     0     0    90    0.37   0.0   0.0   0.00   0.236   0.184   0.201   0.202   0.195   0.166   0.156   0.074
 2003 312    30   132    48      1     43    117     0     0    90    0.43   0.0   0.0   0.00   0.178   0.170   0.194   0.204   0.200   0.174   0.164   0.073
 2003 313    31   127    43      1     45    117     0     0    90    0.31   0.0   0.0   0.00   0.147   0.155   0.166   0.192   0.191   0.169   0.168   0.078
 2003 314    32   124    40      1     45    117     0     0    90    0.22   0.0   0.0   0.00   0.130   0.148   0.155   0.188   0.188   0.168   0.168   0.078
 2003 315    33   123    39      1     45    117     0     0    90    0.16   0.0   0.0   0.00   0.122   0.147   0.155   0.188   0.188   0.168   0.168   0.078
 2003 316    34   122    39      1     45    117     0     0    90    0.11   0.0   0.0   0.00   0.113   0.147   0.154   0.187   0.188   0.168   0.168   0.078
 2003 317    35   122    38      1     45    117     0     0    90    0.08   0.0   0.0   0.00   0.106   0.146   0.154   0.187   0.188   0.167   0.168   0.078
 2003 318    36   122    38      1     45    117     0     0    90    0.06   0.0   0.0   0.00   0.099   0.146   0.154   0.187   0.187   0.167   0.168   0.078
 2003 319    37   121    37      1     45    117     0     0    90    0.04   0.0   0.0   0.00   0.093   0.145   0.154   0.187   0.187   0.167   0.168   0.078
 2003 320    38   121    37      1     45    117     0     0    90    0.03   0.0   0.0   0.00   0.087   0.144   0.153   0.187   0.187   0.167   0.168   0.078
 2003 321    39   120    36      1     45    117     0     0    90    0.02   0.0   0.0   0.00   0.082   0.144   0.153   0.187   0.187   0.167   0.168   0.078
 2003 322    40   120    36      1     45    117     0     0    90    0.02   0.0   0.0   0.00   0.077   0.143   0.153   0.187   0.187   0.167   0.168   0.078
 2003 323    41   120    36      1     45    117     0     0    90    0.01   0.0   0.0   0.00   0.073   0.142   0.153   0.186   0.187   0.167   0.168   0.078
 2003 324    42   119    36      1     45    117     0     0    90    0.01   0.0   0.0   0.00   0.069   0.142   0.153   0.186   0.187   0.167   0.168   0.078
 2003 325    43   119    35      1     45    117     0     0    90    0.01   0.0   0.0   0.00   0.065   0.141   0.152   0.186   0.187   0.167   0.168   0.078
 2003 326    44   119    35      1     45    117     0     0    90    0.01   0.0   0.0   0.00   0.062   0.141   0.152   0.186   0.187   0.167   0.168   0.078
 2003 327    45   119    35      1     45    117     0     0    90    0.00   0.0   0.0   0.00   0.058   0.140   0.152   0.186   0.187   0.167   0.168   0.078
 2003 328    46   118    34      1     45    117     0     0    90    0.00   0.0   0.0   0.00   0.056   0.139   0.152   0.186   0.187   0.167   0.168   0.078
 2003 329    47   118    34      1     45    117     0     0    90    0.00   0.0   0.0   0.00   0.053   0.139   0.151   0.186   0.187   0.167   0.168   0.078
 2003 330    48   118    34      1     45    117     0     0    90    0.00   0.0   0.0   0.00   0.051   0.138   0.151   0.186   0.187   0.167   0.168   0.078
 2003 331    49   118    34      1     45    117     0     0    90    0.00   0.0   0.0   0.00   0.049   0.138   0.151   0.185   0.187   0.167   0.168   0.078
 2003 332    50   118    34      1     45    117     0     0    90    0.00   0.0   0.0   0.00   0.047   0.137   0.151   0.185   0.187   0.167   0.168   0.078
 2003 333    51   117    33      1     45    117     0     0    90    0.00   0.0   0.0   0.00   0.045   0.136   0.151   0.185   0.186   0.167   0.167   0.078
 2003 334    52   117    33      1     45    117     0     0    90    0.00   0.0   0.0   0.00   0.043   0.136   0.150   0.185   0.186   0.167   0.167   0.078
 2003 335    53   117    33      1     45    117     0     0    90    0.00   0.0   0.0   0.00   0.042   0.135   0.150   0.185   0.186   0.167   0.167   0.078
 2003 336    54   117    33      1     45    117     0     0    90    0.00   0.0   0.0   0.00   0.040   0.135   0.150   0.185   0.186   0.167   0.167   0.078
 2003 337    55   118    34      1     45    118     0     0    90    0.40   0.0   0.0   0.00   0.056   0.134   0.150   0.185   0.186   0.167   0.167   0.078
 2003 338    56   117    33      1     45    118     0     0    90    0.29   0.0   0.0   0.00   0.054   0.134   0.150   0.185   0.186   0.167   0.167   0.078
 2003 339    57   117    33      1     45    118     0     0    90    0.22   0.0   0.0   0.00   0.051   0.133   0.149   0.184   0.186   0.167   0.167   0.078
 2003 340    58   117    33      1     45    118     0     0    90    0.16   0.0   0.0   0.00   0.049   0.132   0.149   0.184   0.186   0.167   0.167   0.078
 2003 341    59   117    33      1     45    118     0     0    90    0.12   0.0   0.0   0.00   0.047   0.132   0.149   0.184   0.186   0.167   0.167   0.078
 2003 342    60   117    33      1     45    118     0     0    90    0.09   0.0   0.0   0.00   0.045   0.131   0.149   0.184   0.186   0.167   0.167   0.078
 2003 343    61   116    32      1     45    118     0     0    90    0.07   0.0   0.0   0.00   0.044   0.131   0.148   0.184   0.186   0.167   0.167   0.078
 2003 344    62   116    32      1     45    118     0     0    90    0.05   0.0   0.0   0.00   0.042   0.130   0.148   0.184   0.186   0.167   0.167   0.078
 2003 345    63   116    32      1     45    118     0     0    90    0.04   0.0   0.0   0.00   0.041   0.130   0.148   0.184   0.186   0.167   0.167   0.078
 2003 346    64   116    32      1     45    118     0     0    90    0.03   0.0   0.0   0.00   0.039   0.129   0.148   0.184   0.186   0.167   0.167   0.078
 2003 347    65   116    32      1     45    118     0     0    90    0.02   0.0   0.0   0.00   0.038   0.129   0.148   0.183   0.186   0.166   0.167   0.078
 2003 348    66   116    32      1     45    118     0     0    90    0.01   0.0   0.0   0.00   0.037   0.128   0.147   0.183   0.185   0.166   0.167   0.078
 2003 349    67   115    32      1     45    118     0     0    90    0.01   0.0   0.0   0.00   0.036   0.127   0.147   0.183   0.185   0.166   0.167   0.078
 2003 350    68   115    31      1     45    118     0     0    90    0.01   0.0   0.0   0.00   0.035   0.127   0.147   0.183   0.185   0.166   0.167   0.078
 2003 351    69   115    31      1     45    118     0     0    90    0.01   0.0   0.0   0.00   0.034   0.126   0.147   0.183   0.185   0.166   0.167   0.078
 2003 352    70   115    31      1     45    118     0     0    90    0.00   0.0   0.0   0.00   0.034   0.126   0.147   0.183   0.185   0.166   0.167   0.078
 2003 353    71   115    31      1     45    118     0     0    90    0.00   0.0   0.0   0.00   0.033   0.125   0.146   0.183   0.185   0.166   0.167   0.078
 2003 354    72   115    31      1     45    118     0     0    90    0.00   0.0   0.0   0.00   0.032   0.125   0.146   0.182   0.185   0.166   0.167   0.078
 2003 355    73   115    31      1     45    118     0     0    90    0.00   0.0   0.0   0.00   0.032   0.124   0.146   0.182   0.185   0.166   0.167   0.078
 2003 356    74   115    31      1     45    118     0     0    90    0.00   0.0   0.0   0.00   0.031   0.124   0.146   0.182   0.185   0.166   0.167   0.078
 2003 357    75   114    31      1     45    118     0     0    90    0.00   0.0   0.0   0.00   0.031   0.123   0.146   0.182   0.185   0.166   0.167   0.078
 2003 358    76   114    30      1     45    118     0     0    90    0.00   0.0   0.0   0.00   0.030   0.123   0.145   0.182   0.185   0.166   0.167   0.078
 2003 359    77   114    30      1     45    118     0     0    90    0.00   0.0   0.0   0.00   0.030   0.122   0.145   0.182   0.185   0.166   0.167   0.078
 2003 360    78   114    30      1     45    118     0     0    90    0.00   0.0   0.0   0.00   0.029   0.122   0.145   0.182   0.185   0.166   0.167   0.078
 2003 361    79   114    30      1     45    118     0     0    90    0.00   0.0   0.0   0.00   0.029   0.121   0.145   0.182   0.185   0.166   0.167   0.078
 2003 362    80   114    30      1     45    118     0     0    90    0.00   0.0   0.0   0.00   0.029   0.121   0.145   0.181   0.185   0.166   0.167   0.078
 2003 363    81   114    30      1     45    118     0     0    90    0.00   0.0   0.0   0.00   0.029   0.120   0.144   0.181   0.184   0.166   0.167   0.078
 2003 364    82   114    30      1     45    118     0     0    90    0.00   0.0   0.0   0.00   0.028   0.120   0.144   0.181   0.184   0.166   0.167   0.078
 2003 365    83   114    30      1     45    118     0     0    90    0.00   0.0   0.0   0.00   0.028   0.119   0.144   0.181   0.184   0.166   0.167   0.078
 2004 001    84   114    30      1     45    118     0     0    90    0.00   0.0   0.0   0.00   0.028   0.119   0.144   0.181   0.184   0.166   0.167   0.078
 2004 002    85   113    30      1     45    118     0     0    90    0.00   0.0   0.0   0.00   0.028   0.118   0.144   0.181   0.184   0.166   0.167   0.078
 2004 003    86   113    29      1     45    118     0     0    90    0.00   0.0   0.0   0.00   0.027   0.118   0.143   0.181   0.184   0.166   0.167   0.078
 2004 004    87   113    29      1     45    118     0     0    90    0.00   0.0   0.0   0.00   0.027   0.117   0.143   0.181   0.184   0.166   0.167   0.078
 2004 005    88   113    29      1     45    118     0     0    90    0.00   0.0   0.0   0.00   0.027   0.117   0.143   0.180   0.184   0.166   0.167   0.078
 2004 006    89   113    29      1     45    118     0     0    90    0.00   0.0   0.0   0.00   0.027   0.116   0.143   0.180   0.184   0.166   0.167   0.078
 2004 007    90   113    29      1     45    118     0     0    90    0.00   0.0   0.0   0.00   0.027   0.116   0.143   0.180   0.184   0.166   0.167   0.078
 2004 008    91   113    29      1     45    118     0     0    90    0.00   0.0   0.0   0.00   0.027   0.115   0.142   0.180   0.184   0.166   0.167   0.078
 2004 009    92   113    29      1     45    118     0     0    90    0.00   0.0   0.0   0.00   0.027   0.115   0.142   0.180   0.184   0.166   0.167   0.078
 2004 010    93   113    29      1     45    118     0     0    90    0.00   0.0   0.0   0.00   0.027   0.114   0.142   0.180   0.184   0.166   0.167   0.078
 2004 011    94   113    29      1     45    118     0     0    90    0.00   0.0   0.0   0.00   0.026   0.114   0.142   0.180   0.184   0.165   0.166   0.078
 2004 012    95   113    29      1     45    118     0     0    90    0.00   0.0   0.0   0.00   0.026   0.113   0.142   0.180   0.184   0.165   0.166   0.078
 2004 013    96   112    29      1     45    118     0     0    90    0.00   0.0   0.0   0.00   0.026   0.113   0.141   0.179   0.184   0.165   0.166   0.078
 2004 014    97   112    28      1     45    118     0     0    90    0.00   0.0   0.0   0.00   0.026   0.113   0.141   0.179   0.183   0.165   0.166   0.078
 2004 015    98   112    28      1     45    118     0     0    90    0.00   0.0   0.0   0.00   0.026   0.112   0.141   0.179   0.183   0.165   0.166   0.078
 2004 016    99   112    28      1     45    118     0     0    90    0.00   0.0   0.0   0.00   0.026   0.112   0.141   0.179   0.183   0.165   0.166   0.078
 2004 017   100   112    28      1     45    118     0     0    90    0.00   0.0   0.0   0.00   0.026   0.111   0.141   0.179   0.183   0.165   0.166   0.078
 2004 018   101   112    28      1     45    118     0     0    90    0.00   0.0   0.0   0.00   0.026   0.111   0.140   0.179   0.183   0.165   0.166   0.078
 2004 019   102   112    28      1     45    118     0     0    90    0.00   0.0   0.0   0.00   0.026   0.110   0.140   0.179   0.183   0.165   0.166   0.078
 2004 020   103   135    51      1     45    144     0     0    90    0.41   0.0   0.0   0.00   0.244   0.188   0.192   0.194   0.189   0.166   0.164   0.077
 2004 021   104   127    43      1     49    144     0     0    90    0.31   0.0   0.0   0.00   0.168   0.161   0.165   0.187   0.187   0.168   0.168   0.078
 2004 022   105   125    41      1     49    144     0     0    90    0.23   0.0   0.0   0.00   0.149   0.153   0.156   0.187   0.188   0.169   0.169   0.078
 2004 023   106   122    38      1     49    144     0     0    90    0.17   0.0   0.0   0.00   0.132   0.147   0.151   0.183   0.185   0.166   0.167   0.077
 2004 024   107   121    38      1     49    144     0     0    90    0.13   0.0   0.0   0.00   0.123   0.146   0.151   0.183   0.185   0.166   0.167   0.077
 2004 025   108   121    37      1     49    144     0     0    90    0.10   0.0   0.0   0.00   0.115   0.145   0.151   0.183   0.185   0.166   0.167   0.077
 2004 026   109   120    37      1     49    144     0     0    90    0.08   0.0   0.0   0.00   0.107   0.145   0.151   0.183   0.185   0.166   0.167   0.077
 2004 027   110   120    36      1     49    144     0     0    90    0.06   0.0   0.0   0.00   0.100   0.144   0.151   0.183   0.184   0.166   0.167   0.077
 2004 028   111   120    36      1     49    144     0     0    90    0.04   0.0   0.0   0.00   0.094   0.143   0.150   0.183   0.184   0.166   0.167   0.077
 2004 029   112   119    35      1     49    144     0     0    90    0.03   0.0   0.0   0.00   0.088   0.143   0.150   0.183   0.184   0.166   0.167   0.077
 2004 030   113   119    35      1     49    144     0     0    90    0.03   0.0   0.0   0.00   0.083   0.142   0.150   0.182   0.184   0.166   0.166   0.077
 2004 031   114   119    35      1     49    144     0     0    90    0.02   0.0   0.0   0.00   0.078   0.142   0.150   0.182   0.184   0.166   0.166   0.077
[...]
 2004 169   252   134    50      1    138    441     0     0    87    0.34   0.0   0.0   0.00   0.180   0.162   0.177   0.201   0.202   0.178   0.175   0.080
 2004 170   253   126    42      1    142    441     0     0    89    0.27   0.0   0.0   0.00   0.146   0.151   0.159   0.190   0.191   0.171   0.170   0.079
 2004 171   254   123    39      1    142    441     0     0    90    0.21   0.0   0.0   0.00   0.130   0.145   0.152   0.186   0.188   0.168   0.168   0.079
 2004 172   255   129    45      1    142    450     0     0    90    0.33   0.0   0.0   0.00   0.207   0.161   0.164   0.188   0.189   0.166   0.166   0.078
 2004 173   256   126    42      1    142    451     0     0    90    0.29   0.0   0.0   0.00   0.161   0.157   0.164   0.189   0.188   0.166   0.164   0.077
 2004 174   257   123    39      1    142    451     0     0    90    0.23   0.0   0.0   0.00   0.140   0.150   0.154   0.186   0.187   0.166   0.162   0.076
 2004 175   258   122    38      1    142    451     0     0    90    0.19   0.0   0.0   0.00   0.130   0.149   0.154   0.186   0.187   0.166   0.162   0.076
 2004 176   259   121    38      1    142    451     0     0    90    0.15   0.0   0.0   0.00   0.121   0.148   0.153   0.186   0.187   0.166   0.162   0.076
 2004 177   260   121    37      1    142    451     0     0    90    0.12   0.0   0.0   0.00   0.113   0.147   0.153   0.185   0.187   0.166   0.162   0.076
 2004 178   261   128    44      1    142    461     0     0    90    0.31   0.0   0.0   0.00   0.209   0.162   0.166   0.189   0.188   0.163   0.160   0.076
 2004 179   262   134    50      1    142    471     0     0    90    0.27   0.0   0.0   0.00   0.230   0.180   0.193   0.198   0.193   0.169   0.160   0.075
 2004 180   263   127    43      1    145    471     0     0    90    0.22   0.0   0.0   0.00   0.165   0.158   0.165   0.190   0.188   0.168   0.168   0.078
 2004 181   264   124    40      1    145    471     0     0    90    0.17   0.0   0.0   0.00   0.140   0.151   0.154   0.186   0.187   0.168   0.168   0.078
 2004 182   265   150    67      1    145    501     0     0    87    0.31   0.0   0.0   0.03   0.241   0.239   0.241   0.223   0.208   0.180   0.174   0.080
 2004 183   266   132    48      1    159    501     0     0    89    0.25   0.0   0.0   0.00   0.165   0.178   0.182   0.198   0.194   0.171   0.170   0.079
 2004 184   267   125    41      1    162    501     0     0    90    0.20   0.0   0.0   0.00   0.139   0.156   0.159   0.188   0.188   0.169   0.168   0.078
 2004 185   268   144    60      1    162    522     0     0    88    0.30   0.0   0.0   0.00   0.251   0.210   0.223   0.209   0.200   0.176   0.172   0.080
 2004 186   269   140    56      1    163    522     0     0    85    0.27   0.0   0.0   0.00   0.181   0.180   0.214   0.212   0.207   0.182   0.178   0.081
 2004 187   270   159    75      2    172    555     0     0    80    0.30   0.0   0.0   0.43   0.239   0.238   0.238   0.253   0.252   0.182   0.182   0.082
 2004 188   271   155    71      2    180    564     0     0    80    0.29   0.0   0.0   0.00   0.234   0.209   0.237   0.245   0.246   0.182   0.182   0.082
 2004 189   272   145    62      2    187    565     0     0    80    0.29   0.0   0.0   0.00   0.186   0.178   0.220   0.228   0.234   0.182   0.182   0.082
 2004 190   273   141    57      2    192    568     0     0    79    0.29   0.0   0.0   0.00   0.187   0.166   0.198   0.216   0.222   0.182   0.182   0.083
 2004 191   274   144    60      2    196    580     0     0    80    0.29   0.0   0.0   0.00   0.239   0.176   0.205   0.213   0.215   0.182   0.182   0.082
 2004 192   275   149    65      2    200    592     0     0    79    0.28   0.0   0.0   0.00   0.246   0.198   0.231   0.221   0.218   0.182   0.183   0.083
 2004 193   276   143    59      2    205    594     0     0    79    0.28   0.0   0.0   0.00   0.200   0.175   0.215   0.219   0.218   0.182   0.183   0.083
 2004 194   277   130    46      2    214    594     0     0    87    0.23   0.0   0.0   0.00   0.160   0.151   0.171   0.197   0.198   0.174   0.174   0.080
 2004 195   278   149    65      2    216    620     0     0    83    0.29   0.0   0.0   0.00   0.239   0.217   0.233   0.220   0.210   0.182   0.181   0.081
 2004 196   279   134    50      2    229    620     0     0    83    0.24   0.0   0.0   0.00   0.180   0.171   0.179   0.198   0.195   0.174   0.174   0.081
 2004 197   280   126    42      2    232    620     0     0    85    0.19   0.0   0.0   0.00   0.151   0.146   0.153   0.187   0.188   0.170   0.170   0.081
 2004 198   281   121    38      2    232    620     0     0    86    0.16   0.0   0.0   0.00   0.139   0.130   0.143   0.181   0.183   0.168   0.169   0.080
 2004 199   282   136    52      2    232    637     0     0    86    0.28   0.0   0.0   0.00   0.252   0.182   0.185   0.194   0.189   0.170   0.168   0.080
 2004 200   283   127    43      2    238    637     0     0    87    0.23   0.0   0.0   0.00   0.183   0.151   0.158   0.186   0.186   0.169   0.169   0.080
 2004 201   284   121    37      2    238    637     0     0    88    0.19   0.0   0.0   0.00   0.150   0.130   0.143   0.181   0.180   0.167   0.168   0.080
 2004 202   285   118    34      2    238    637     0     0    89    0.16   0.0   0.0   0.00   0.141   0.120   0.133   0.176   0.176   0.166   0.167   0.079
 2004 203   286   134    50      2    238    655     0     0    89    0.27   0.0   0.0   0.00   0.250   0.185   0.179   0.190   0.179   0.166   0.166   0.079
 2004 204   287   126    42      2    241    655     0     0    89    0.23   0.0   0.0   0.00   0.182   0.148   0.152   0.184   0.186   0.169   0.169   0.079
 2004 205   288   121    37      2    241    655     0     0    90    0.19   0.0   0.0   0.00   0.153   0.133   0.139   0.176   0.180   0.168   0.168   0.079
 2004 206   289   118    34      2    241    655     0     0    90    0.16   0.0   0.0   0.00   0.143   0.124   0.131   0.173   0.178   0.167   0.168   0.079
 2004 207   290   114    30      2    241    655     0     0    90    0.13   0.0   0.0   0.00   0.121   0.113   0.117   0.167   0.171   0.167   0.167   0.079
 2004 208   291   110    26      2    241    655     0     0    90    0.11   0.0   0.0   0.00   0.107   0.104   0.109   0.158   0.163   0.165   0.166   0.079
 2004 209   292   120    36      2    241    668     0     0    90    0.26   0.0   0.0   0.00   0.246   0.152   0.110   0.152   0.157   0.162   0.163   0.079
 2004 210   293   119    35      2    241    671     0     0    90    0.23   0.0   0.0   0.00   0.207   0.144   0.149   0.151   0.156   0.161   0.163   0.079
 2004 211   294   115    31      2    241    671     0     0    90    0.19   0.0   0.0   0.00   0.165   0.131   0.138   0.150   0.155   0.161   0.162   0.079
 2004 212   295   115    31      2    241    674     0     0    90    0.26   0.0   0.0   0.00   0.180   0.135   0.121   0.149   0.154   0.160   0.162   0.079
 2004 213   296   116    32      2    241    679     0     0    90    0.24   0.0   0.0   0.00   0.204   0.135   0.133   0.148   0.153   0.160   0.161   0.078
 2004 214   297   110    26      2    241    679     0     0    90    0.20   0.0   0.0   0.00   0.161   0.115   0.112   0.147   0.152   0.159   0.160   0.078
 2004 215   298   122    38      2    241    695     0     0    90    0.26   0.0   0.0   0.00   0.235   0.168   0.161   0.154   0.150   0.157   0.159   0.078
 2004 216   299   121    37      2    241    699     0     0    90    0.24   0.0   0.0   0.00   0.220   0.148   0.158   0.174   0.149   0.157   0.159   0.078
 2004 217   300   148    64      2    241    729     0     0    90    0.26   0.0   0.0   0.32   0.256   0.236   0.237   0.228   0.201   0.171   0.161   0.078
 2004 218   301   149    66      2    242    736     0     0    84    0.24   0.0   0.0   0.00   0.254   0.200   0.235   0.224   0.219   0.183   0.181   0.081
 2004 219   302   142    59      2    246    736     0     0    78    0.22   0.0   0.0   0.00   0.197   0.174   0.213   0.212   0.217   0.183   0.183   0.083
 2004 220   303   135    51      2    249    737     0     0    78    0.24   0.0   0.0   0.00   0.179   0.155   0.182   0.194   0.207   0.182   0.183   0.083
 2004 221   304   155    71      2    254    765     0     0    78    0.26   0.0   0.0   0.10   0.256   0.238   0.239   0.231   0.222   0.183   0.183   0.083
 2004 222   305   137    53      2    269    765     0     0    58    0.22   0.0   0.0   0.00   0.188   0.176   0.177   0.193   0.197   0.174   0.177   0.089
 2004 223   306   128    44      2    274    765     0     0    78    0.19   0.0   0.0   0.00   0.165   0.156   0.157   0.185   0.189   0.171   0.172   0.083
 2004 224   307   133    49      2    275    773     0     0    84    0.24   0.0   0.0   0.00   0.225   0.166   0.171   0.188   0.189   0.171   0.171   0.081
 2004 225   308   126    42      2    278    773     0     0    84    0.21   0.0   0.0   0.00   0.176   0.148   0.150   0.178   0.184   0.170   0.170   0.081
 2004 226   309   158    74      7    285    823     0     0    78    0.24   0.0   0.0   5.02   0.249   0.230   0.231   0.243   0.251   0.182   0.182   0.083
 2004 227   310   141    57      7    300    823     0     0    54    0.22   0.0   0.0   0.00   0.188   0.177   0.178   0.204   0.211   0.174   0.191   0.089
 2004 228   311   154    70      7    308    850     0     0    78    0.23   0.0   0.0   0.14   0.249   0.230   0.231   0.234   0.226   0.182   0.183   0.083
 2004 229   312   135    51      7    322    850     0     0    64    0.19   0.0   0.0   0.00   0.183   0.172   0.173   0.196   0.198   0.173   0.174   0.088
 2004 230   313   127    43      7    327    850     0     0    80    0.16   0.0   0.0   0.00   0.160   0.152   0.153   0.184   0.189   0.170   0.170   0.082
 2004 231   314   122    39      7    328    850     0     0    86    0.14   0.0   0.0   0.00   0.149   0.142   0.143   0.174   0.183   0.169   0.169   0.080
 2004 232   315   122    38      7    328    856     0     0    86    0.24   0.0   0.0   0.00   0.185   0.142   0.141   0.164   0.174   0.167   0.168   0.080
 2004 233   316   119    35      7    328    856     0     0    87    0.21   0.0   0.0   0.00   0.158   0.139   0.130   0.161   0.170   0.167   0.167   0.080
 2004 234   317   116    32      7    328    856     0     0    87    0.18   0.0   0.0   0.00   0.149   0.128   0.124   0.159   0.168   0.166   0.166   0.080
 2004 235   318   159    75     15    332    913     0     0    78    0.23   0.0   0.0   7.50   0.246   0.238   0.241   0.256   0.242   0.182   0.182   0.083
 2004 236   319   152    68     15    340    916     0     0    78    0.23   0.0   0.0   0.00   0.217   0.197   0.239   0.239   0.240   0.183   0.183   0.083
 2004 237   320   133    49     15    354    916     0     0    79    0.20   0.0   0.0   0.00   0.170   0.159   0.177   0.200   0.204   0.173   0.174   0.083
 2004 238   321   140    56     15    355    930     0     0    81    0.23   0.0   0.0   0.00   0.246   0.179   0.196   0.199   0.200   0.180   0.177   0.082
 2004 239   322   137    53     15    357    932     0     0    80    0.22   0.0   0.0   0.00   0.209   0.169   0.190   0.200   0.199   0.181   0.178   0.082
 2004 240   323   126    42     15    363    932     0     0    86    0.19   0.0   0.0   0.00   0.164   0.147   0.156   0.185   0.187   0.172   0.171   0.080
 2004 241   324   126    42     15    363    935     0     0    86    0.23   0.0   0.0   0.00   0.176   0.150   0.152   0.184   0.182   0.171   0.170   0.080
 2004 242   325   125    41     15    363    939     0     0    87    0.22   0.0   0.0   0.00   0.190   0.150   0.151   0.182   0.174   0.169   0.168   0.080
 2004 243   326   119    36     15    363    939     0     0    87    0.18   0.0   0.0   0.00   0.151   0.137   0.137   0.173   0.168   0.167   0.166   0.080
 2004 244   327   144    60     15    363    968     0     0    87    0.22   0.0   0.0   0.05   0.247   0.226   0.234   0.207   0.191   0.172   0.165   0.080
 2004 245   328   130    46     15    373    968     0     0    87    0.19   0.0   0.0   0.00   0.180   0.172   0.175   0.190   0.185   0.170   0.169   0.080
 2004 246   329   156    72     15    375    997     0     0    81    0.23   0.0   0.0   0.32   0.253   0.239   0.239   0.242   0.218   0.183   0.182   0.082
 2004 247   330   154    70     15    382   1009     0     0    78    0.21   0.0   0.0   0.00   0.243   0.216   0.230   0.246   0.232   0.181   0.181   0.083
 2004 248   331   144    60     15    388   1009     0     0    78    0.22   0.0   0.0   0.00   0.186   0.177   0.215   0.227   0.227   0.182   0.182   0.083
 2004 249   332   128    44     15    398   1009     0     0    86    0.19   0.0   0.0   0.00   0.150   0.148   0.163   0.195   0.196   0.172   0.172   0.080
 2004 250   333   128    44     15    399   1014     0     0    87    0.22   0.0   0.0   0.00   0.184   0.151   0.155   0.189   0.190   0.172   0.171   0.080
 2004 251   334   130    46     15    399   1019     0     0    84    0.21   0.0   0.0   0.00   0.205   0.157   0.160   0.188   0.187   0.171   0.170   0.081
 2004 252   335   124    40     15    400   1019     0     0    84    0.18   0.0   0.0   0.00   0.160   0.143   0.143   0.182   0.182   0.168   0.168   0.081
 2004 253   336   120    36     15    400   1019     0     0    85    0.15   0.0   0.0   0.00   0.146   0.134   0.133   0.176   0.177   0.167   0.167   0.081
 2004 254   337   117    33     15    400   1019     0     0    85    0.13   0.0   0.0   0.00   0.134   0.124   0.124   0.171   0.171   0.166   0.166   0.081
 2004 255   338   133    50     15    400   1038     0     0    85    0.21   0.0   0.0   0.00   0.245   0.190   0.186   0.188   0.171   0.164   0.164   0.081
 2004 256   339   135    52     15    400   1043     0     0    85    0.20   0.0   0.0   0.00   0.231   0.180   0.199   0.200   0.189   0.166   0.163   0.081
 2004 257   340   150    66     15    401   1064     0     0    85    0.21   0.0   0.0   0.00   0.242   0.225   0.231   0.227   0.209   0.182   0.175   0.081
 2004 258   341   147    63     15    404   1069     0     0    78    0.20   0.0   0.0   0.00   0.225   0.189   0.230   0.223   0.215   0.181   0.181   0.083
 2004 259   342   158    74     15    411   1090     0     0    78    0.21   0.0   0.0   0.00   0.249   0.236   0.237   0.250   0.234   0.182   0.182   0.083
 2004 260   343   140    56     15    425   1090     0     0    56    0.18   0.0   0.0   0.00   0.183   0.179   0.180   0.209   0.203   0.173   0.189   0.089
 2004 261   344   128    44     15    433   1090     0     0    79    0.15   0.0   0.0   0.00   0.151   0.152   0.152   0.190   0.188   0.169   0.176   0.083
 2004 262   345   120    37     15    434   1090     0     0    86    0.13   0.0   0.0   0.00   0.131   0.135   0.137   0.181   0.179   0.166   0.169   0.080
 2004 263   346   133    49     15    434   1108     0     0    87    0.20   0.0   0.0   0.00   0.247   0.177   0.177   0.189   0.182   0.164   0.167   0.080
 2004 264   347   136    52     15    434   1113     0     0    87    0.19   0.0   0.0   0.00   0.235   0.177   0.192   0.198   0.190   0.171   0.166   0.080
 2004 265   348   137    53     15    434   1118     0     0    84    0.20   0.0   0.0   0.00   0.222   0.174   0.195   0.203   0.197   0.175   0.171   0.081
 2004 266   349   126    42     15    440   1118     0     0    86    0.17   0.0   0.0   0.00   0.161   0.148   0.157   0.187   0.185   0.169   0.169   0.080
 2004 267   350   126    42     15    440   1124     0     0    87    0.20   0.0   0.0   0.00   0.190   0.150   0.154   0.184   0.180   0.166   0.166   0.080
 2004 268   351   121    37     15    440   1124     0     0    88    0.17   0.0   0.0   0.00   0.149   0.141   0.142   0.180   0.173   0.164   0.164   0.080
 2004 269   352   115    31     15    440   1124     0     0    90    0.15   0.0   0.0   0.00   0.125   0.123   0.126   0.170   0.167   0.161   0.162   0.079
 2004 270   353   122    38     15    440   1134     0     0    90    0.20   0.0   0.0   0.00   0.221   0.154   0.135   0.165   0.163   0.160   0.160   0.079
 2004 271   354   117    33     15    440   1135     0     0    90    0.19   0.0   0.0   0.00   0.169   0.145   0.141   0.162   0.159   0.158   0.158   0.079
 2004 272   355   111    27     15    440   1135     0     0    90    0.16   0.0   0.0   0.00   0.130   0.126   0.119   0.158   0.156   0.155   0.156   0.078
 2004 273   356   116    33     15    440   1147     0     0    90    0.20   0.0   0.0   0.00   0.212   0.146   0.141   0.152   0.151   0.153   0.153   0.078
 2004 274   357   111    27     15    440   1147     0     0    90    0.17   0.0   0.0   0.00   0.151   0.135   0.136   0.150   0.149   0.151   0.152   0.077
 2004 275   358   106    22     15    440   1147     0     0    90    0.15   0.0   0.0   0.00   0.120   0.115   0.116   0.149   0.148   0.150   0.151   0.077
 2004 276   359   103    19     15    440   1147     0     0    90    0.13   0.0   0.0   0.00   0.098   0.106   0.107   0.146   0.146   0.149   0.150   0.077
 2004 277   360   101    18     15    440   1147     0     0    90    0.11   0.0   0.0   0.00   0.090   0.102   0.103   0.144   0.144   0.148   0.148   0.077
 2004 278   361   101    18     15    440   1148     0     0    90    0.19   0.0   0.0   0.00   0.109   0.099   0.100   0.143   0.142   0.147   0.147   0.077
 2004 279   362   100    16     15    440   1148     0     0    90    0.17   0.0   0.0   0.00   0.097   0.097   0.098   0.141   0.141   0.145   0.146   0.077
 2004 280   363    99    15     15    440   1148     0     0    90    0.15   0.0   0.0   0.00   0.090   0.095   0.096   0.140   0.140   0.144   0.145   0.077
 2004 281   364    98    14     15    440   1148     0     0    90    0.13   0.0   0.0   0.00   0.084   0.094   0.095   0.139   0.139   0.144   0.144   0.077
 2004 282   365    97    13     15    440   1148     0     0    90    0.11   0.0   0.0   0.00   0.079   0.092   0.093   0.137   0.137   0.143   0.143   0.077
 2004 283   366    96    12     15    440   1148     0     0    90    0.10   0.0   0.0   0.00   0.075   0.091   0.092   0.136   0.136   0.142   0.142   0.077
 2004 284   367    96    12     15    440   1148     0     0    90    0.09   0.0   0.0   0.00   0.070   0.090   0.091   0.135   0.136   0.141   0.142   0.077
 2004 285   368   101    17     15    440   1155     0     0    90    0.19   0.0   0.0   0.00   0.168   0.100   0.090   0.135   0.135   0.140   0.141   0.077
 2004 286   369    96    12     15    440   1155     0     0    90    0.16   0.0   0.0   0.00   0.098   0.099   0.087   0.132   0.132   0.138   0.139   0.076
 2004 287   370    95    11     15    440   1155     0     0    90    0.14   0.0   0.0   0.00   0.091   0.096   0.087   0.131   0.132   0.138   0.138   0.076
 2004 288   371    95    11     15    440   1155     0     0    90    0.13   0.0   0.0   0.00   0.085   0.094   0.086   0.130   0.131   0.137   0.138   0.076
 2004 289   372    94    10     15    440   1155     0     0    90    0.11   0.0   0.0   0.00   0.080   0.093   0.085   0.130   0.130   0.137   0.137   0.076
 2004 290   373    93     9     15    440   1155     0     0    90    0.10   0.0   0.0   0.00   0.075   0.091   0.085   0.129   0.130   0.136   0.137   0.076
 2004 291   374    93     9     15    440   1155     0     0    90    0.08   0.0   0.0   0.00   0.071   0.090   0.085   0.129   0.129   0.136   0.136   0.076
 2004 292   375    92     8     15    440   1155     0     0    90    0.07   0.0   0.0   0.00   0.067   0.089   0.085   0.128   0.129   0.135   0.136   0.076
 2004 293   376    92     8     15    440   1155     0     0    90    0.07   0.0   0.0   0.00   0.064   0.088   0.085   0.127   0.128   0.135   0.135   0.076
 2004 294   377    91     7     15    440   1155     0     0    90    0.06   0.0   0.0   0.00   0.060   0.087   0.085   0.127   0.128   0.134   0.135   0.076
