*Soil Organic Matter daily output file

*DSSAT Cropping System Model Ver. 4.5.1.023 -Stub         NOV 07, 2014; 01:44:25
                                                                                
*RUN   1        : N0 P0                     MZCER045 GHWA0401    1              
 MODEL          : MZCER045 - Maize                                              
 EXPERIMENT     : GHWA0401 MZ ON-STATION NXP (EXPERIMENT NO.2) 9 TRT            
 DATA PATH      :                                                               
 TREATMENT  1   : N0 P0                     MZCER045                            
  
@YEAR DOY   DAS    OMAC    SCDD    SOCD    SC0D    SCTD   SOMCT    LCTD    ONAC    SNDD    SOND    SN0D    SNTD   SOMNT    LNTD    OPAC    SPDD    SOPD    SP0D    SPTD   SOMPT    LPTD
 2003 282     0       0    5992   50171     605   49566   49506    60.0    0.00   846.0  6984.8   16.63  6968.2  6966.8    1.35    0.00    22.2   200.8    3.87   196.9   196.7    0.24
 2003 283     1       0    5992   50152     589   49563   49506    56.7    0.00   846.0  6984.5   16.49  6968.0  6966.7    1.26    0.00    22.2   200.7    3.78   196.9   196.7    0.22
 2003 284     2       0    5992   50135     575   49560   49506    53.7    0.00   846.0  6984.2   16.36  6967.8  6966.6    1.17    0.00    22.2   200.6    3.70   196.9   196.7    0.21
 2003 285     3       0    5993   50119     562   49557   49506    50.9    0.00   846.0  6983.9   16.22  6967.6  6966.6    1.10    0.00    22.3   200.5    3.62   196.9   196.7    0.20
 2003 286     4       0    5993   50103     549   49554   49506    48.2    0.00   846.0  6983.5   16.07  6967.5  6966.5    1.02    0.00    22.3   200.5    3.54   196.9   196.7    0.18
 2003 287     5       0    5993   50086     535   49551   49506    45.7    0.00   846.0  6983.2   15.90  6967.3  6966.4    0.95    0.00    22.3   200.4    3.47   196.9   196.8    0.17
 2003 288     6       0    5993   50072     523   49549   49506    43.5    0.00   845.9  6982.9   15.73  6967.1  6966.3    0.89    0.00    22.3   200.3    3.40   196.9   196.8    0.16
 2003 289     7       0    5993   50059     512   49547   49505    41.7    0.00   845.9  6982.6   15.58  6967.0  6966.2    0.84    0.00    22.3   200.3    3.34   196.9   196.8    0.15
 2003 290     8       0    5993   50047     502   49545   49505    40.0    0.00   845.9  6982.3   15.43  6966.8  6966.0    0.79    0.00    22.3   200.3    3.29   197.0   196.8    0.15
 2003 291     9       0    5993   50037     494   49543   49505    38.5    0.00   845.9  6982.0   15.28  6966.7  6965.9    0.75    0.00    22.3   200.2    3.25   197.0   196.8    0.14
 2003 292    10       0    5993   50025     484   49541   49504    37.0    0.00   845.9  6981.7   15.13  6966.5  6965.8    0.71    0.00    22.3   200.2    3.20   197.0   196.8    0.13
 2003 293    11       0    5993   50014     475   49539   49504    35.5    0.00   845.9  6981.3   14.97  6966.4  6965.7    0.67    0.00    22.3   200.1    3.16   197.0   196.9    0.13
 2003 294    12       0    5993   50005     468   49538   49503    34.1    0.00   845.9  6981.0   14.83  6966.2  6965.6    0.63    0.00    22.3   200.1    3.12   197.0   196.9    0.12
 2003 295    13       0    5993   49997     462   49536   49503    32.9    0.00   845.9  6980.7   14.70  6966.0  6965.4    0.60    0.00    22.3   200.1    3.10   197.0   196.9    0.11
 2003 296    14       0    5993   49990     457   49534   49502    31.7    0.00   845.9  6980.5   14.60  6965.9  6965.3    0.56    0.00    22.3   200.1    3.07   197.0   196.9    0.11
 2003 297    15       0    5993   49979     448   49532   49501    30.4    0.00   845.8  6980.1   14.47  6965.7  6965.1    0.53    0.00    22.3   200.0    3.03   197.0   196.9    0.10
 2003 298    16       0    5993   49968     438   49530   49501    29.1    0.00   845.8  6979.8   14.27  6965.5  6965.0    0.50    0.00    22.3   200.0    2.98   197.0   196.9    0.10
 2003 299    17       0    5993   49957     429   49528   49500    28.0    0.00   845.8  6979.4   14.07  6965.3  6964.9    0.47    0.00    22.3   200.0    2.94   197.0   196.9    0.09
 2003 300    18       0    5994   49948     422   49527   49500    27.0    0.00   845.8  6979.0   13.89  6965.2  6964.7    0.44    0.00    22.3   200.0    2.91   197.0   197.0    0.09
 2003 301    19       0    5994   49940     415   49525   49499    26.1    0.00   845.8  6978.7   13.73  6965.0  6964.6    0.42    0.00    22.3   199.9    2.89   197.1   197.0    0.08
 2003 302    20       0    5993   49933     410   49524   49498    25.3    0.00   845.8  6978.4   13.59  6964.8  6964.4    0.40    0.00    22.3   199.9    2.87   197.1   197.0    0.08
 2003 303    21       0    5993   49927     405   49522   49497    24.6    0.00   845.8  6978.2   13.47  6964.7  6964.3    0.38    0.00    22.3   199.9    2.85   197.1   197.0    0.08
 2003 304    22       0    5993   49919     398   49520   49497    23.8    0.00   845.7  6977.9   13.35  6964.5  6964.2    0.36    0.00    22.3   199.9    2.82   197.1   197.0    0.07
 2003 305    23       0    5993   49911     391   49519   49496    23.2    0.00   845.7  6977.5   13.15  6964.4  6964.0    0.34    0.00    22.3   199.9    2.79   197.1   197.0    0.07
 2003 306    24       0    5993   49903     385   49518   49496    22.6    0.00   845.7  6977.2   12.98  6964.2  6963.9    0.33    0.00    22.3   199.9    2.77   197.1   197.0    0.07
 2003 307    25       0    5993   49897     380   49517   49495    22.0    0.00   845.7  6976.9   12.83  6964.1  6963.8    0.31    0.00    22.3   199.9    2.75   197.1   197.0    0.06
 2003 308    26       0    5993   49891     375   49516   49494    21.5    0.00   845.7  6976.7   12.70  6964.0  6963.7    0.30    0.00    22.3   199.8    2.73   197.1   197.0    0.06
 2003 309    27       0    5993   49886     372   49515   49494    21.0    0.00   845.7  6976.4   12.58  6963.8  6963.5    0.29    0.00    22.3   199.8    2.72   197.1   197.1    0.06
 2003 310    28       0    5993   49882     368   49513   49493    20.6    0.00   845.7  6976.2   12.48  6963.7  6963.4    0.28    0.00    22.3   199.8    2.71   197.1   197.1    0.06
 2003 311    29       0    5993   49876     364   49512   49492    20.1    0.00   845.6  6975.9   12.39  6963.5  6963.3    0.26    0.00    22.3   199.8    2.69   197.1   197.1    0.06
 2003 312    30       0    5993   49869     358   49511   49491    19.6    0.00   845.6  6975.6   12.22  6963.4  6963.1    0.25    0.00    22.3   199.8    2.67   197.1   197.1    0.05
 2003 313    31       0    5993   49862     352   49510   49491    19.2    0.00   845.6  6975.3   12.06  6963.2  6963.0    0.24    0.00    22.3   199.8    2.65   197.1   197.1    0.05
 2003 314    32       0    5993   49855     346   49509   49490    18.7    0.00   845.6  6975.0   11.87  6963.1  6962.9    0.23    0.00    22.3   199.8    2.63   197.2   197.1    0.05
 2003 315    33       0    5993   49849     342   49508   49489    18.3    0.00   845.6  6974.7   11.71  6962.9  6962.7    0.22    0.00    22.3   199.8    2.62   197.2   197.1    0.05
 2003 316    34       0    5993   49844     338   49506   49488    18.0    0.00   845.6  6974.4   11.58  6962.8  6962.6    0.21    0.00    22.3   199.8    2.61   197.2   197.1    0.05
 2003 317    35       0    5993   49840     335   49505   49488    17.7    0.00   845.5  6974.1   11.47  6962.6  6962.4    0.21    0.00    22.3   199.8    2.60   197.2   197.1    0.05
 2003 318    36       0    5993   49836     332   49504   49487    17.3    0.00   845.5  6973.8   11.37  6962.5  6962.3    0.20    0.00    22.3   199.8    2.59   197.2   197.1    0.04
 2003 319    37       0    5993   49832     329   49502   49485    17.0    0.00   845.5  6973.6   11.28  6962.3  6962.1    0.19    0.00    22.3   199.8    2.58   197.2   197.2    0.04
 2003 320    38       0    5993   49828     327   49501   49484    16.7    0.00   845.5  6973.4   11.20  6962.2  6962.0    0.19    0.00    22.3   199.8    2.58   197.2   197.2    0.04
 2003 321    39       0    5993   49824     325   49500   49483    16.5    0.00   845.5  6973.1   11.13  6962.0  6961.8    0.18    0.00    22.3   199.8    2.57   197.2   197.2    0.04
 2003 322    40       0    5993   49821     323   49498   49482    16.2    0.00   845.5  6972.9   11.08  6961.8  6961.6    0.18    0.00    22.3   199.8    2.57   197.2   197.2    0.04
 2003 323    41       0    5993   49819     322   49497   49481    16.0    0.00   845.4  6972.7   11.03  6961.7  6961.5    0.17    0.00    22.3   199.8    2.56   197.2   197.2    0.04
 2003 324    42       0    5992   49816     321   49495   49479    15.8    0.00   845.4  6972.5   10.99  6961.5  6961.3    0.17    0.00    22.3   199.8    2.56   197.2   197.2    0.04
 2003 325    43       0    5992   49814     320   49493   49478    15.5    0.00   845.4  6972.3   10.96  6961.3  6961.2    0.16    0.00    22.3   199.8    2.56   197.2   197.2    0.04
 2003 326    44       0    5992   49812     320   49492   49476    15.3    0.00   845.4  6972.1   10.94  6961.1  6961.0    0.16    0.00    22.3   199.8    2.56   197.2   197.2    0.04
 2003 327    45       0    5992   49810     319   49490   49475    15.2    0.00   845.4  6971.9   10.93  6961.0  6960.8    0.15    0.00    22.3   199.8    2.56   197.3   197.2    0.04
 2003 328    46       0    5992   49808     319   49489   49474    15.0    0.00   845.4  6971.7   10.92  6960.8  6960.7    0.15    0.00    22.3   199.8    2.56   197.3   197.2    0.04
 2003 329    47       0    5992   49806     319   49487   49472    14.8    0.00   845.3  6971.5   10.91  6960.6  6960.5    0.15    0.00    22.3   199.8    2.56   197.3   197.2    0.03
 2003 330    48       0    5992   49804     319   49485   49471    14.6    0.00   845.3  6971.4   10.91  6960.5  6960.3    0.14    0.00    22.3   199.8    2.56   197.3   197.2    0.03
 2003 331    49       0    5991   49802     319   49484   49469    14.5    0.00   845.3  6971.2   10.90  6960.3  6960.2    0.14    0.00    22.3   199.8    2.56   197.3   197.3    0.03
 2003 332    50       0    5991   49801     318   49482   49468    14.3    0.00   845.3  6971.0   10.89  6960.1  6960.0    0.14    0.00    22.3   199.8    2.55   197.3   197.3    0.03
 2003 333    51       0    5991   49799     318   49481   49466    14.2    0.00   845.3  6970.9   10.89  6960.0  6959.8    0.14    0.00    22.3   199.9    2.55   197.3   197.3    0.03
 2003 334    52       0    5991   49797     318   49479   49465    14.1    0.00   845.3  6970.7   10.88  6959.8  6959.7    0.14    0.00    22.3   199.9    2.55   197.3   197.3    0.03
 2003 335    53       0    5991   49795     318   49477   49463    13.9    0.00   845.2  6970.5   10.87  6959.6  6959.5    0.13    0.00    22.3   199.9    2.55   197.3   197.3    0.03
 2003 336    54       0    5991   49794     318   49476   49462    13.8    0.00   845.2  6970.4   10.87  6959.5  6959.4    0.13    0.00    22.3   199.9    2.55   197.3   197.3    0.03
 2003 337    55       0    5991   49792     317   49474   49461    13.7    0.00   845.2  6970.2   10.86  6959.3  6959.2    0.13    0.00    22.3   199.9    2.55   197.3   197.3    0.03
 2003 338    56       0    5990   49790     317   49473   49459    13.6    0.00   845.2  6970.0   10.85  6959.2  6959.0    0.13    0.00    22.3   199.9    2.55   197.3   197.3    0.03
 2003 339    57       0    5990   49788     317   49471   49458    13.5    0.00   845.2  6969.9   10.85  6959.0  6958.9    0.13    0.00    22.3   199.9    2.55   197.3   197.3    0.03
 2003 340    58       0    5990   49787     317   49470   49457    13.4    0.00   845.2  6969.7   10.84  6958.9  6958.7    0.12    0.00    22.3   199.9    2.55   197.3   197.3    0.03
 2003 341    59       0    5990   49785     317   49468   49455    13.3    0.00   845.1  6969.5   10.83  6958.7  6958.6    0.12    0.00    22.3   199.9    2.55   197.4   197.3    0.03
 2003 342    60       0    5990   49784     317   49467   49454    13.2    0.00   845.1  6969.4   10.83  6958.6  6958.4    0.12    0.00    22.3   199.9    2.55   197.4   197.3    0.03
 2003 343    61       0    5990   49782     316   49466   49452    13.1    0.00   845.1  6969.2   10.82  6958.4  6958.3    0.12    0.00    22.3   199.9    2.55   197.4   197.3    0.03
 2003 344    62       0    5990   49780     316   49464   49451    13.0    0.00   845.1  6969.1   10.82  6958.2  6958.1    0.12    0.00    22.3   199.9    2.55   197.4   197.3    0.03
 2003 345    63       0    5990   49779     316   49463   49450    12.9    0.00   845.1  6968.9   10.81  6958.1  6958.0    0.12    0.00    22.3   199.9    2.55   197.4   197.4    0.03
 2003 346    64       0    5990   49777     316   49461   49448    12.8    0.00   845.1  6968.7   10.80  6957.9  6957.8    0.12    0.00    22.3   199.9    2.55   197.4   197.4    0.03
 2003 347    65       0    5989   49775     316   49460   49447    12.7    0.00   845.1  6968.6   10.80  6957.8  6957.7    0.12    0.00    22.3   199.9    2.55   197.4   197.4    0.03
 2003 348    66       0    5989   49774     315   49458   49446    12.6    0.00   845.1  6968.4   10.79  6957.6  6957.5    0.12    0.00    22.3   199.9    2.55   197.4   197.4    0.03
 2003 349    67       0    5989   49772     315   49457   49444    12.6    0.00   845.0  6968.3   10.78  6957.5  6957.4    0.11    0.00    22.3   200.0    2.55   197.4   197.4    0.03
 2003 350    68       0    5989   49771     315   49456   49443    12.5    0.00   845.0  6968.1   10.78  6957.3  6957.2    0.11    0.00    22.3   200.0    2.55   197.4   197.4    0.03
 2003 351    69       0    5989   49769     315   49454   49442    12.4    0.00   845.0  6968.0   10.77  6957.2  6957.1    0.11    0.00    22.3   200.0    2.55   197.4   197.4    0.03
 2003 352    70       0    5989   49768     315   49453   49441    12.3    0.00   845.0  6967.8   10.77  6957.0  6956.9    0.11    0.00    22.3   200.0    2.54   197.4   197.4    0.03
 2003 353    71       0    5989   49766     314   49451   49439    12.3    0.00   845.0  6967.7   10.76  6956.9  6956.8    0.11    0.00    22.3   200.0    2.54   197.4   197.4    0.03
 2003 354    72       0    5989   49764     314   49450   49438    12.2    0.00   845.0  6967.5   10.75  6956.8  6956.7    0.11    0.00    22.3   200.0    2.54   197.4   197.4    0.03
 2003 355    73       0    5989   49763     314   49449   49437    12.1    0.00   845.0  6967.4   10.75  6956.6  6956.5    0.11    0.00    22.3   200.0    2.54   197.4   197.4    0.03
 2003 356    74       0    5988   49761     314   49447   49435    12.0    0.00   845.0  6967.2   10.74  6956.5  6956.4    0.11    0.00    22.3   200.0    2.54   197.5   197.4    0.03
 2003 357    75       0    5988   49760     314   49446   49434    12.0    0.00   844.9  6967.1   10.73  6956.3  6956.2    0.11    0.00    22.3   200.0    2.54   197.5   197.4    0.03
 2003 358    76       0    5988   49758     314   49445   49433    11.9    0.00   844.9  6966.9   10.73  6956.2  6956.1    0.11    0.00    22.3   200.0    2.54   197.5   197.4    0.03
 2003 359    77       0    5988   49757     313   49444   49432    11.8    0.00   844.9  6966.8   10.72  6956.1  6956.0    0.11    0.00    22.3   200.0    2.54   197.5   197.4    0.03
 2003 360    78       0    5988   49756     313   49442   49430    11.8    0.00   844.9  6966.6   10.72  6955.9  6955.8    0.11    0.00    22.3   200.0    2.54   197.5   197.5    0.03
 2003 361    79       0    5988   49754     313   49441   49429    11.7    0.00   844.9  6966.5   10.71  6955.8  6955.7    0.11    0.00    22.3   200.0    2.54   197.5   197.5    0.03
 2003 362    80       0    5988   49753     313   49440   49428    11.7    0.00   844.9  6966.4   10.70  6955.7  6955.6    0.11    0.00    22.3   200.0    2.54   197.5   197.5    0.03
 2003 363    81       0    5988   49751     313   49439   49427    11.6    0.00   844.9  6966.2   10.70  6955.5  6955.4    0.11    0.00    22.3   200.0    2.54   197.5   197.5    0.03
 2003 364    82       0    5988   49750     313   49437   49426    11.6    0.00   844.9  6966.1   10.69  6955.4  6955.3    0.10    0.00    22.3   200.0    2.54   197.5   197.5    0.03
 2003 365    83       0    5988   49749     312   49436   49425    11.5    0.00   844.9  6966.0   10.69  6955.3  6955.2    0.10    0.00    22.3   200.0    2.54   197.5   197.5    0.02
 2004 001    84       0    5988   49747     312   49435   49423    11.4    0.00   844.9  6965.8   10.68  6955.2  6955.0    0.10    0.00    22.3   200.1    2.54   197.5   197.5    0.02
 2004 002    85       0    5988   49746     312   49434   49422    11.4    0.00   844.9  6965.7   10.68  6955.0  6954.9    0.10    0.00    22.3   200.1    2.54   197.5   197.5    0.02
 2004 003    86       0    5988   49744     312   49433   49421    11.3    0.00   844.8  6965.6   10.67  6954.9  6954.8    0.10    0.00    22.3   200.1    2.54   197.5   197.5    0.02
 2004 004    87       0    5987   49743     312   49431   49420    11.3    0.00   844.8  6965.4   10.66  6954.8  6954.7    0.10    0.00    22.3   200.1    2.54   197.5   197.5    0.02
 2004 005    88       0    5987   49742     312   49430   49419    11.2    0.00   844.8  6965.3   10.66  6954.6  6954.5    0.10    0.00    22.3   200.1    2.54   197.5   197.5    0.02
 2004 006    89       0    5987   49740     311   49429   49418    11.2    0.00   844.8  6965.2   10.65  6954.5  6954.4    0.10    0.00    22.3   200.1    2.54   197.5   197.5    0.02
 2004 007    90       0    5987   49739     311   49428   49416    11.1    0.00   844.8  6965.0   10.65  6954.4  6954.3    0.10    0.00    22.3   200.1    2.54   197.6   197.5    0.02
 2004 008    91       0    5987   49737     311   49426   49415    11.1    0.00   844.8  6964.9   10.64  6954.2  6954.1    0.10    0.00    22.3   200.1    2.54   197.6   197.5    0.02
 2004 009    92       0    5987   49736     311   49425   49414    11.0    0.00   844.8  6964.7   10.63  6954.1  6954.0    0.10    0.00    22.3   200.1    2.53   197.6   197.5    0.02
 2004 010    93       0    5987   49734     311   49424   49413    11.0    0.00   844.8  6964.6   10.63  6953.9  6953.8    0.10    0.00    22.3   200.1    2.53   197.6   197.5    0.02
 2004 011    94       0    5987   49733     310   49422   49411    10.9    0.00   844.8  6964.4   10.62  6953.8  6953.7    0.10    0.00    22.3   200.1    2.53   197.6   197.6    0.02
 2004 012    95       0    5987   49731     310   49421   49410    10.9    0.00   844.8  6964.3   10.61  6953.7  6953.6    0.10    0.00    22.3   200.1    2.53   197.6   197.6    0.02
 2004 013    96       0    5987   49730     310   49420   49409    10.8    0.00   844.8  6964.2   10.61  6953.6  6953.5    0.10    0.00    22.3   200.1    2.53   197.6   197.6    0.02
 2004 014    97       0    5987   49729     310   49419   49408    10.8    0.00   844.8  6964.0   10.60  6953.4  6953.3    0.10    0.00    22.3   200.1    2.53   197.6   197.6    0.02
 2004 015    98       0    5987   49727     310   49418   49407    10.7    0.00   844.7  6963.9   10.59  6953.3  6953.2    0.10    0.00    22.3   200.1    2.53   197.6   197.6    0.02
 2004 016    99       0    5987   49726     310   49416   49406    10.7    0.00   844.7  6963.8   10.59  6953.2  6953.1    0.10    0.00    22.3   200.1    2.53   197.6   197.6    0.02
 2004 017   100       0    5987   49725     309   49415   49405    10.6    0.00   844.7  6963.6   10.58  6953.1  6953.0    0.10    0.00    22.3   200.1    2.53   197.6   197.6    0.02
 2004 018   101       0    5986   49723     309   49414   49403    10.6    0.00   844.7  6963.5   10.58  6952.9  6952.8    0.10    0.00    22.3   200.2    2.53   197.6   197.6    0.02
 2004 019   102       0    5986   49722     309   49413   49402    10.5    0.00   844.7  6963.4   10.57  6952.8  6952.7    0.10    0.00    22.3   200.2    2.53   197.6   197.6    0.02
 2004 020   103       0    5986   49720     309   49412   49401    10.5    0.00   844.7  6963.2   10.56  6952.7  6952.6    0.10    0.00    22.3   200.2    2.53   197.6   197.6    0.02
 2004 021   104       0    5986   49717     307   49410   49400    10.4    0.00   844.7  6963.1   10.55  6952.5  6952.4    0.10    0.00    22.3   200.2    2.52   197.6   197.6    0.02
 2004 022   105       0    5986   49711     302   49409   49399    10.3    0.00   844.7  6962.8   10.39  6952.4  6952.3    0.09    0.00    22.3   200.2    2.51   197.7   197.6    0.02
 2004 023   106       0    5986   49705     297   49408   49398    10.2    0.00   844.7  6962.4   10.21  6952.2  6952.1    0.09    0.00    22.3   200.2    2.50   197.7   197.6    0.02
 2004 024   107       0    5986   49701     293   49408   49398    10.1    0.00   844.6  6962.2   10.05  6952.1  6952.0    0.09    0.00    22.3   200.2    2.49   197.7   197.6    0.02
 2004 025   108       0    5986   49697     290   49407   49397    10.0    0.00   844.6  6961.9    9.92  6952.0  6951.9    0.09    0.00    22.3   200.2    2.48   197.7   197.7    0.02
 2004 026   109       0    5986   49693     287   49406   49396     9.9    0.00   844.6  6961.7    9.81  6951.9  6951.8    0.09    0.00    22.3   200.2    2.47   197.7   197.7    0.02
 2004 027   110       0    5986   49690     285   49405   49395     9.9    0.00   844.6  6961.5    9.72  6951.8  6951.7    0.09    0.00    22.3   200.2    2.47   197.7   197.7    0.02
 2004 028   111       0    5986   49687     283   49404   49394     9.8    0.00   844.6  6961.3    9.64  6951.6  6951.5    0.09    0.00    22.3   200.2    2.47   197.7   197.7    0.02
 2004 029   112       0    5986   49684     281   49403   49393     9.7    0.00   844.6  6961.0    9.56  6951.5  6951.4    0.09    0.00    22.3   200.2    2.46   197.7   197.7    0.02
 2004 030   113       0    5986   49681     279   49402   49392     9.6    0.00   844.6  6960.8    9.49  6951.3  6951.3    0.09    0.00    22.3   200.2    2.46   197.7   197.7    0.02
 2004 031   114       0    5986   49678     278   49401   49391     9.6    0.00   844.5  6960.6    9.44  6951.2  6951.1    0.09    0.00    22.3   200.2    2.46   197.7   197.7    0.02
 2004 032   115       0    5986   49676     276   49399   49390     9.5    0.00   844.5  6960.4    9.39  6951.0  6951.0    0.09    0.00    22.3   200.2    2.45   197.7   197.7    0.02
 2004 033   116       0    5986   49674     276   49398   49389     9.5    0.00   844.5  6960.3    9.35  6950.9  6950.8    0.08    0.00    22.3   200.2    2.45   197.7   197.7    0.02
 2004 034   117       0    5985   49672     275   49397   49387     9.4    0.00   844.5  6960.1    9.32  6950.8  6950.7    0.08    0.00    22.3   200.2    2.45   197.7   197.7    0.02
 2004 035   118       0    5985   49670     274   49395   49386     9.3    0.00   844.5  6959.9    9.30  6950.6  6950.5    0.08    0.00    22.3   200.2    2.45   197.7   197.7    0.02
 2004 036   119       0    5985   49668     274   49394   49385     9.3    0.00   844.5  6959.8    9.28  6950.5  6950.4    0.08    0.00    22.3   200.2    2.45   197.8   197.7    0.02
 2004 037   120       0    5985   49667     274   49393   49384     9.2    0.00   844.5  6959.6    9.27  6950.3  6950.3    0.08    0.00    22.3   200.2    2.45   197.8   197.7    0.02
 2004 038   121       0    5985   49665     274   49392   49382     9.2    0.00   844.4  6959.5    9.27  6950.2  6950.1    0.08    0.00    22.3   200.2    2.45   197.8   197.7    0.02
 2004 039   122       0    5985   49664     273   49390   49381     9.2    0.00   844.4  6959.3    9.26  6950.1  6950.0    0.08    0.00    22.3   200.2    2.45   197.8   197.8    0.02
 2004 040   123       0    5985   49663     273   49389   49380     9.1    0.00   844.4  6959.2    9.26  6950.0  6949.9    0.08    0.00    22.3   200.2    2.45   197.8   197.8    0.02
 2004 041   124       0    5985   49661     273   49388   49379     9.1    0.00   844.4  6959.1    9.25  6949.8  6949.8    0.08    0.00    22.3   200.2    2.45   197.8   197.8    0.02
 2004 042   125       0    5985   49660     273   49387   49378     9.0    0.00   844.4  6959.0    9.25  6949.7  6949.6    0.08    0.00    22.3   200.2    2.45   197.8   197.8    0.02
 2004 043   126       0    5984   49659     273   49386   49377     9.0    0.00   844.4  6958.8    9.24  6949.6  6949.5    0.08    0.00    22.3   200.2    2.45   197.8   197.8    0.02
 2004 044   127       0    5984   49657     273   49384   49375     9.0    0.00   844.4  6958.7    9.24  6949.4  6949.4    0.08    0.00    22.3   200.3    2.45   197.8   197.8    0.02
 2004 045   128       0    5984   49656     273   49383   49374     8.9    0.00   844.4  6958.5    9.23  6949.3  6949.2    0.08    0.00    22.3   200.3    2.45   197.8   197.8    0.02
 2004 046   129       0    5984   49654     273   49382   49373     8.9    0.00   844.3  6958.4    9.22  6949.2  6949.1    0.08    0.00    22.3   200.3    2.45   197.8   197.8    0.02
 2004 047   130       0    5984   49653     272   49380   49371     8.8    0.00   844.3  6958.2    9.22  6949.0  6948.9    0.08    0.00    22.3   200.3    2.45   197.8   197.8    0.02
 2004 048   131       0    5984   49651     272   49379   49370     8.8    0.00   844.3  6958.1    9.21  6948.9  6948.8    0.08    0.00    22.3   200.3    2.45   197.8   197.8    0.02
 2004 049   132       0    5984   49650     272   49377   49369     8.7    0.00   844.3  6957.9    9.21  6948.7  6948.6    0.08    0.00    22.3   200.3    2.45   197.8   197.8    0.02
 2004 050   133       0    5984   49648     272   49376   49367     8.7    0.00   844.3  6957.8    9.20  6948.6  6948.5    0.08    0.00    22.3   200.3    2.44   197.8   197.8    0.02
 2004 051   134       0    5983   49646     272   49375   49366     8.6    0.00   844.3  6957.6    9.19  6948.4  6948.4    0.08    0.00    22.3   200.3    2.44   197.9   197.8    0.02
 2004 052   135       0    5983   49645     272   49373   49365     8.6    0.00   844.3  6957.5    9.19  6948.3  6948.2    0.08    0.00    22.3   200.3    2.44   197.9   197.8    0.02
 2004 053   136       0    5983   49643     271   49372   49364     8.5    0.00   844.2  6957.3    9.18  6948.2  6948.1    0.08    0.00    22.3   200.3    2.44   197.9   197.8    0.02
 2004 054   137       0    5983   49642     271   49371   49362     8.5    0.00   844.2  6957.2    9.18  6948.0  6947.9    0.08    0.00    22.3   200.3    2.44   197.9   197.9    0.02
 2004 055   138       0    5983   49640     271   49369   49361     8.5    0.00   844.2  6957.0    9.17  6947.9  6947.8    0.08    0.00    22.3   200.3    2.44   197.9   197.9    0.02
 2004 056   139       0    5983   49639     271   49368   49360     8.4    0.00   844.2  6956.9    9.16  6947.7  6947.6    0.08    0.00    22.3   200.3    2.44   197.9   197.9    0.02
 2004 057   140       0    5983   49637     271   49367   49358     8.4    0.00   844.2  6956.7    9.16  6947.6  6947.5    0.08    0.00    22.3   200.3    2.44   197.9   197.9    0.02
 2004 058   141       0    5983   49636     271   49365   49357     8.3    0.00   844.2  6956.6    9.15  6947.4  6947.4    0.08    0.00    22.3   200.3    2.44   197.9   197.9    0.02
 2004 059   142       0    5983   49634     270   49364   49356     8.3    0.00   844.2  6956.4    9.14  6947.3  6947.2    0.08    0.00    22.3   200.4    2.44   197.9   197.9    0.02
 2004 060   143       0    5982   49631     269   49362   49354     8.2    0.00   844.1  6956.3    9.14  6947.1  6947.0    0.08    0.00    22.3   200.4    2.44   197.9   197.9    0.02
 2004 061   144       0    5982   49626     264   49362   49354     8.1    0.00   844.1  6956.0    8.97  6947.0  6946.9    0.08    0.00    22.3   200.4    2.43   197.9   197.9    0.02
 2004 062   145       0    5982   49620     260   49361   49353     8.0    0.00   844.1  6955.6    8.78  6946.9  6946.8    0.07    0.00    22.3   200.4    2.42   197.9   197.9    0.02
 2004 063   146       0    5982   49616     255   49360   49352     8.0    0.00   844.1  6955.3    8.61  6946.7  6946.7    0.07    0.00    22.3   200.4    2.41   197.9   197.9    0.02
 2004 064   147       0    5982   49611     252   49360   49352     7.9    0.00   844.1  6955.1    8.44  6946.6  6946.6    0.07    0.00    22.3   200.4    2.41   198.0   197.9    0.02
 2004 065   148       0    5982   49608     249   49359   49351     7.8    0.00   844.1  6954.8    8.31  6946.5  6946.5    0.07    0.00    22.3   200.4    2.40   198.0   197.9    0.02
 2004 066   149       0    5982   49605     246   49358   49351     7.8    0.00   844.1  6954.6    8.21  6946.4  6946.4    0.07    0.00    22.3   200.4    2.40   198.0   197.9    0.02
 2004 067   150       0    5982   49602     245   49358   49350     7.7    0.00   844.1  6954.5    8.13  6946.3  6946.3    0.07    0.00    22.3   200.4    2.40   198.0   198.0    0.02
 2004 068   151       0    5982   49600     243   49357   49349     7.7    0.00   844.0  6954.3    8.06  6946.2  6946.2    0.07    0.00    22.3   200.4    2.39   198.0   198.0    0.02
 2004 069   152       0    5982   49598     242   49356   49349     7.7    0.00   844.0  6954.1    8.00  6946.1  6946.1    0.07    0.00    22.3   200.4    2.39   198.0   198.0    0.02
 2004 070   153       0    5982   49596     240   49355   49348     7.6    0.00   844.0  6954.0    7.95  6946.0  6946.0    0.07    0.00    22.3   200.4    2.39   198.0   198.0    0.02
 2004 071   154       0    5982   49594     239   49354   49347     7.6    0.00   844.0  6953.8    7.90  6945.9  6945.8    0.07    0.00    22.3   200.4    2.39   198.0   198.0    0.02
 2004 072   155       0    5982   49592     238   49353   49346     7.5    0.00   844.0  6953.7    7.86  6945.8  6945.7    0.07    0.00    22.3   200.4    2.39   198.0   198.0    0.02
 2004 073   156       0    5982   49590     237   49352   49345     7.5    0.00   844.0  6953.5    7.82  6945.7  6945.6    0.07    0.00    22.3   200.4    2.39   198.0   198.0    0.02
 2004 074   157       0    5982   49588     237   49351   49344     7.4    0.00   844.0  6953.3    7.79  6945.5  6945.5    0.07    0.00    22.3   200.4    2.39   198.0   198.0    0.02
 2004 075   158       0    5982   49586     236   49350   49343     7.4    0.00   843.9  6953.2    7.76  6945.4  6945.3    0.07    0.00    22.3   200.4    2.38   198.0   198.0    0.02
 2004 076   159       0    5981   49585     236   49349   49341     7.4    0.00   843.9  6953.0    7.74  6945.3  6945.2    0.07    0.00    22.3   200.4    2.38   198.0   198.0    0.02
 2004 077   160       0    5981   49583     236   49347   49340     7.3    0.00   843.9  6952.9    7.73  6945.1  6945.1    0.07    0.00    22.3   200.4    2.38   198.0   198.0    0.01
 2004 078   161       0    5981   49582     235   49346   49339     7.3    0.00   843.9  6952.7    7.72  6945.0  6944.9    0.07    0.00    22.3   200.4    2.38   198.0   198.0    0.01
 2004 079   162       0    5981   49580     235   49345   49338     7.2    0.00   843.9  6952.6    7.72  6944.9  6944.8    0.07    0.00    22.3   200.4    2.38   198.0   198.0    0.01
 2004 080   163       0    5981   49579     235   49344   49336     7.2    0.00   843.9  6952.5    7.71  6944.7  6944.7    0.07    0.00    22.3   200.4    2.38   198.0   198.0    0.01
 2004 081   164       0    5981   49577     235   49342   49335     7.2    0.00   843.8  6952.3    7.71  6944.6  6944.5    0.07    0.00    22.3   200.4    2.38   198.1   198.0    0.01
 2004 082   165       0    5981   49576     235   49341   49334     7.1    0.00   843.8  6952.2    7.70  6944.5  6944.4    0.07    0.00    22.3   200.4    2.38   198.1   198.0    0.01
 2004 083   166       0    5981   49575     235   49340   49333     7.1    0.00   843.8  6952.1    7.70  6944.4  6944.3    0.07    0.00    22.4   200.4    2.38   198.1   198.0    0.01
 2004 084   167       0    5980   49573     235   49339   49332     7.1    0.00   843.8  6951.9    7.69  6944.2  6944.2    0.07    0.00    22.4   200.5    2.38   198.1   198.1    0.01
 2004 085   168       0    5980   49572     235   49338   49331     7.0    0.00   843.8  6951.8    7.69  6944.1  6944.0    0.07    0.00    22.4   200.5    2.38   198.1   198.1    0.01
 2004 086   169       0    5980   49571     234   49336   49329     7.0    0.00   843.8  6951.7    7.68  6944.0  6943.9    0.07    0.00    22.4   200.5    2.38   198.1   198.1    0.01
 2004 087   170       0    5980   49569     234   49335   49328     7.0    0.00   843.8  6951.5    7.68  6943.8  6943.8    0.07    0.00    22.4   200.5    2.38   198.1   198.1    0.01
 2004 088   171       0    5980   49568     234   49334   49327     6.9    0.00   843.7  6951.4    7.67  6943.7  6943.6    0.07    0.00    22.4   200.5    2.38   198.1   198.1    0.01
 2004 089   172       0    5980   49567     234   49333   49326     6.9    0.00   843.7  6951.2    7.67  6943.6  6943.5    0.07    0.00    22.4   200.5    2.38   198.1   198.1    0.01
 2004 090   173       0    5980   49564     233   49331   49324     6.8    0.00   843.7  6951.1    7.67  6943.4  6943.4    0.06    0.00    22.4   200.5    2.38   198.1   198.1    0.01
 2004 091   174       0    5980   49559     229   49331   49324     6.8    0.00   843.7  6950.8    7.50  6943.3  6943.2    0.06    0.00    22.4   200.5    2.37   198.1   198.1    0.01
 2004 092   175       0    5980   49555     225   49330   49323     6.7    0.00   843.7  6950.5    7.35  6943.2  6943.1    0.06    0.00    22.4   200.5    2.37   198.1   198.1    0.01
 2004 093   176       0    5980   49551     222   49329   49323     6.7    0.00   843.7  6950.3    7.20  6943.1  6943.0    0.06    0.00    22.4   200.5    2.37   198.1   198.1    0.01
 2004 094   177       0    5980   49548     219   49329   49322     6.6    0.00   843.6  6950.1    7.08  6943.0  6942.9    0.06    0.00    22.4   200.5    2.36   198.1   198.1    0.01
 2004 095   178       0    5980   49545     217   49328   49321     6.6    0.00   843.6  6949.9    6.98  6942.9  6942.8    0.06    0.00    22.4   200.5    2.36   198.1   198.1    0.01
 2004 096   179       0    5979   49543     215   49327   49321     6.5    0.00   843.6  6949.7    6.89  6942.8  6942.7    0.06    0.00    22.4   200.5    2.36   198.1   198.1    0.01
 2004 097   180       0    5979   49540     214   49326   49320     6.5    0.00   843.6  6949.5    6.82  6942.7  6942.6    0.06    0.00    22.4   200.5    2.36   198.2   198.1    0.01
 2004 098   181       0    5979   49538     212   49325   49319     6.4    0.00   843.6  6949.3    6.75  6942.5  6942.5    0.06    0.00    22.4   200.5    2.36   198.2   198.1    0.01
 2004 099   182       0    5979   49535     211   49325   49318     6.4    0.00   843.6  6949.1    6.69  6942.4  6942.4    0.06    0.00    22.4   200.5    2.35   198.2   198.2    0.01
 2004 100   183       0    5979   49533     209   49324   49317     6.3    0.00   843.6  6948.9    6.64  6942.3  6942.2    0.06    0.00    22.4   200.5    2.35   198.2   198.2    0.01
 2004 101   184       0    5979   49529     206   49323   49317     6.3    0.00   843.5  6948.7    6.52  6942.2  6942.1    0.06    0.00    22.4   200.5    2.35   198.2   198.2    0.01
 2004 102   185       0    5979   49526     204   49322   49316     6.2    0.00   843.5  6948.5    6.41  6942.1  6942.0    0.06    0.00    22.4   200.5    2.35   198.2   198.2    0.01
 2004 103   186       0    5979   49523     201   49322   49316     6.2    0.00   843.5  6948.3    6.30  6942.0  6941.9    0.06    0.00    22.4   200.5    2.35   198.2   198.2    0.01
 2004 104   187       0    5979   49520     199   49321   49315     6.2    0.00   843.5  6948.1    6.19  6941.9  6941.8    0.06    0.00    22.4   200.5    2.34   198.2   198.2    0.01
 2004 105   188       0    5979   49517     197   49320   49314     6.1    0.00   843.5  6947.9    6.10  6941.8  6941.7    0.06    0.00    22.4   200.5    2.34   198.2   198.2    0.01
 2004 106   189       0    5979   49515     195   49320   49314     6.1    0.00   843.5  6947.7    6.01  6941.7  6941.6    0.06    0.00    22.4   200.5    2.34   198.2   198.2    0.01
 2004 107   190       0    5979   49511     193   49319   49313     6.0    0.00   843.4  6947.4    5.91  6941.5  6941.5    0.06    0.00    22.4   200.6    2.34   198.2   198.2    0.01
 2004 108   191       0    5979   49508     190   49318   49312     6.0    0.00   843.4  6947.2    5.80  6941.4  6941.3    0.06    0.00    22.4   200.6    2.34   198.2   198.2    0.01
 2004 109   192       0    5979   49505     188   49317   49311     5.9    0.00   843.4  6946.9    5.70  6941.2  6941.2    0.06    0.00    22.4   200.6    2.34   198.2   198.2    0.01
 2004 110   193       0    5979   49502     186   49316   49310     5.9    0.00   843.4  6946.7    5.62  6941.1  6941.0    0.06    0.00    22.4   200.6    2.33   198.2   198.2    0.01
 2004 111   194       0    5979   49499     185   49315   49309     5.8    0.00   843.4  6946.5    5.56  6941.0  6940.9    0.06    0.00    22.4   200.6    2.33   198.2   198.2    0.01
 2004 112   195       0    5978   49497     183   49313   49308     5.8    0.00   843.4  6946.3    5.51  6940.8  6940.8    0.06    0.00    22.4   200.6    2.33   198.3   198.2    0.01
 2004 113   196       0    5978   49494     181   49312   49307     5.8    0.00   843.3  6946.1    5.42  6940.7  6940.6    0.06    0.00    22.4   200.6    2.33   198.3   198.3    0.01
 2004 114   197       0    5978   49491     179   49312   49306     5.7    0.00   843.3  6945.9    5.32  6940.6  6940.5    0.06    0.00    22.4   200.6    2.33   198.3   198.3    0.01
 2004 115   198       0    5978   49488     177   49310   49305     5.7    0.00   843.3  6945.7    5.24  6940.4  6940.4    0.06    0.00    22.4   200.6    2.33   198.3   198.3    0.01
 2004 116   199       0    5978   49485     175   49310   49304     5.6    0.00   843.3  6945.4    5.15  6940.3  6940.2    0.06    0.00    22.4   200.6    2.33   198.3   198.3    0.01
 2004 117   200       0    5978   49482     173   49309   49303     5.6    0.00   843.3  6945.2    5.06  6940.2  6940.1    0.05    0.00    22.4   200.6    2.33   198.3   198.3    0.01
 2004 118   201       0    5978   49479     172   49308   49302     5.5    0.00   843.3  6945.0    4.99  6940.0  6940.0    0.05    0.00    22.4   200.6    2.32   198.3   198.3    0.01
 2004 119   202       0    5978   49477     170   49307   49301     5.5    0.00   843.3  6944.8    4.91  6939.9  6939.9    0.05    0.00    22.4   200.6    2.32   198.3   198.3    0.01
 2004 120   203       0    5978   49474     168   49306   49300     5.5    0.00   843.2  6944.6    4.84  6939.8  6939.8    0.05    0.00    22.4   200.6    2.32   198.3   198.3    0.01
 2004 121   204       0    5978   49472     167   49305   49299     5.4    0.00   843.2  6944.5    4.78  6939.7  6939.6    0.05    0.00    22.4   200.6    2.32   198.3   198.3    0.01
 2004 122   205       0    5978   49469     165   49304   49298     5.4    0.00   843.2  6944.3    4.72  6939.5  6939.5    0.05    0.00    22.4   200.7    2.32   198.3   198.3    0.01
 2004 123   206       0    5978   49467     164   49303   49298     5.4    0.00   843.2  6944.1    4.64  6939.4  6939.4    0.05    0.00    22.4   200.7    2.32   198.3   198.3    0.01
 2004 124   207       0    5978   49464     162   49302   49297     5.3    0.00   843.2  6943.9    4.58  6939.3  6939.2    0.05    0.00    22.4   200.7    2.32   198.3   198.3    0.01
 2004 125   208       0    5978   49462     161   49301   49296     5.3    0.00   843.2  6943.7    4.53  6939.2  6939.1    0.05    0.00    22.4   200.7    2.32   198.4   198.3    0.01
 2004 126   209       0    5977   49460     160   49300   49295     5.3    0.00   843.1  6943.5    4.48  6939.0  6939.0    0.05    0.00    22.4   200.7    2.32   198.4   198.4    0.01
 2004 127   210       0    5977   49457     158   49299   49294     5.2    0.00   843.1  6943.3    4.41  6938.9  6938.8    0.05    0.00    22.4   200.7    2.32   198.4   198.4    0.01
 2004 128   211       0    5977   49454     157   49298   49293     5.2    0.00   843.1  6943.1    4.33  6938.8  6938.7    0.05    0.00    22.4   200.7    2.32   198.4   198.4    0.01
 2004 129   212       0    5977   49452     155   49297   49292     5.1    0.00   843.1  6942.9    4.27  6938.6  6938.6    0.05    0.00    22.4   200.7    2.32   198.4   198.4    0.01
 2004 130   213       0    5977   49450     154   49296   49291     5.1    0.00   843.1  6942.8    4.22  6938.5  6938.5    0.05    0.00    22.4   200.7    2.32   198.4   198.4    0.01
 2004 131   214       0    5977   49448     153   49295   49290     5.1    0.00   843.1  6942.6    4.18  6938.4  6938.4    0.05    0.00    22.4   200.7    2.32   198.4   198.4    0.01
 2004 132   215       0    5977   49446     152   49294   49289     5.1    0.00   843.1  6942.4    4.14  6938.3  6938.2    0.05    0.00    22.4   200.7    2.32   198.4   198.4    0.01
 2004 133   216       0    5977   49444     151   49293   49288     5.0    0.00   843.0  6942.3    4.12  6938.2  6938.1    0.05    0.00    22.4   200.7    2.32   198.4   198.4    0.01
 2004 134   217       0    5977   49442     150   49292   49287     5.0    0.00   843.0  6942.1    4.05  6938.0  6938.0    0.05    0.00    22.4   200.7    2.31   198.4   198.4    0.01
 2004 135   218       0    5977   49440     148   49291   49286     5.0    0.00   843.0  6941.9    3.99  6937.9  6937.9    0.05    0.00    22.4   200.7    2.31   198.4   198.4    0.01
 2004 136   219       0    5977   49437     147   49290   49285     4.9    0.00   843.0  6941.7    3.93  6937.8  6937.8    0.05    0.00    22.4   200.7    2.31   198.4   198.4    0.01
 2004 137   220       0    5977   49435     146   49290   49285     4.9    0.00   843.0  6941.6    3.88  6937.7  6937.6    0.05    0.00    22.4   200.7    2.31   198.4   198.4    0.01
 2004 138   221       0    5976   49433     144   49289   49284     4.9    0.00   843.0  6941.4    3.83  6937.6  6937.5    0.05    0.00    22.4   200.8    2.31   198.4   198.4    0.01
 2004 139   222       0    5976   49431     143   49288   49283     4.8    0.00   842.9  6941.3    3.77  6937.5  6937.4    0.05    0.00    22.4   200.8    2.31   198.4   198.4    0.01
 2004 140   223       0    5976   49429     142   49287   49282     4.8    0.00   842.9  6941.1    3.73  6937.4  6937.3    0.05    0.00    22.4   200.8    2.31   198.5   198.4    0.01
 2004 141   224       0    5976   49427     141   49286   49281     4.8    0.00   842.9  6941.0    3.70  6937.3  6937.2    0.05    0.00    22.4   200.8    2.31   198.5   198.4    0.01
 2004 142   225       0    5976   49425     140   49285   49280     4.7    0.00   842.9  6940.8    3.65  6937.1  6937.1    0.05    0.00    22.4   200.8    2.31   198.5   198.5    0.01
 2004 143   226       0    5976   49423     139   49284   49279     4.7    0.00   842.9  6940.6    3.60  6937.0  6936.9    0.05    0.00    22.4   200.8    2.31   198.5   198.5    0.01
 2004 144   227       0    5976   49421     138   49283   49278     4.7    0.00   842.9  6940.4    3.55  6936.9  6936.8    0.05    0.00    22.4   200.8    2.31   198.5   198.5    0.01
 2004 145   228       0    5976   49419     137   49282   49277     4.6    0.00   842.9  6940.3    3.52  6936.7  6936.7    0.05    0.00    22.4   200.8    2.31   198.5   198.5    0.01
 2004 146   229       0    5976   49417     136   49281   49276     4.6    0.00   842.8  6940.1    3.47  6936.6  6936.6    0.05    0.00    22.4   200.8    2.31   198.5   198.5    0.01
 2004 147   230       0    5976   49415     135   49280   49275     4.6    0.00   842.8  6939.9    3.43  6936.5  6936.4    0.05    0.00    22.4   200.8    2.31   198.5   198.5    0.01
 2004 148   231       0    5976   49413     134   49279   49274     4.6    0.00   842.8  6939.7    3.39  6936.4  6936.3    0.05    0.00    22.4   200.8    2.31   198.5   198.5    0.01
 2004 149   232       0    5975   49411     133   49278   49273     4.5    0.00   842.8  6939.6    3.35  6936.2  6936.2    0.05    0.00    22.4   200.8    2.31   198.5   198.5    0.01
 2004 150   233       0    5975   49408     132   49277   49272     4.5    0.00   842.8  6939.4    3.30  6936.1  6936.1    0.05    0.00    22.4   200.8    2.31   198.5   198.5    0.01
 2004 151   234       0    5975   49406     131   49276   49271     4.5    0.00   842.8  6939.2    3.26  6936.0  6935.9    0.05    0.00    22.4   200.8    2.31   198.5   198.5    0.01
 2004 152   235       0    5975   49404     130   49275   49270     4.4    0.00   842.7  6939.1    3.23  6935.8  6935.8    0.05    0.00    22.4   200.8    2.31   198.5   198.5    0.01
 2004 153   236       0    5975   49402     129   49274   49269     4.4    0.00   842.7  6938.9    3.19  6935.7  6935.7    0.05    0.00    22.4   200.9    2.31   198.5   198.5    0.01
 2004 154   237       0    5975   49401     128   49273   49268     4.4    0.00   842.7  6938.8    3.15  6935.6  6935.6    0.05    0.00    22.4   200.9    2.31   198.5   198.5    0.01
 2004 155   238       0    5975   49399     127   49272   49268     4.4    0.00   842.7  6938.6    3.11  6935.5  6935.4    0.05    0.00    22.4   200.9    2.31   198.6   198.5    0.01
 2004 156   239       0    5975   49397     126   49271   49267     4.3    0.00   842.7  6938.4    3.08  6935.4  6935.3    0.05    0.00    22.4   200.9    2.31   198.6   198.6    0.01
 2004 157   240       0    5975   49395     125   49270   49266     4.3    0.00   842.7  6938.3    3.05  6935.2  6935.2    0.05    0.00    22.4   200.9    2.31   198.6   198.6    0.01
 2004 158   241       0    5975   49393     124   49269   49265     4.3    0.00   842.7  6938.1    3.01  6935.1  6935.1    0.05    0.00    22.4   200.9    2.31   198.6   198.6    0.01
 2004 159   242       0    5975   49392     124   49268   49264     4.3    0.00   842.6  6938.0    2.98  6935.0  6935.0    0.05    0.00    22.4   200.9    2.31   198.6   198.6    0.01
 2004 160   243       0    5975   49390     123   49267   49263     4.2    0.00   842.6  6937.8    2.96  6934.9  6934.8    0.05    0.00    22.4   200.9    2.31   198.6   198.6    0.01
 2004 161   244       0    5974   49388     122   49266   49262     4.2    0.00   842.6  6937.7    2.94  6934.8  6934.7    0.05    0.00    22.4   200.9    2.31   198.6   198.6    0.01
 2004 162   245       0    5974   49387     122   49265   49261     4.2    0.00   842.6  6937.5    2.91  6934.6  6934.6    0.05    0.00    22.4   200.9    2.31   198.6   198.6    0.01
 2004 163   246       0    5974   49385     121   49264   49260     4.2    0.00   842.6  6937.4    2.89  6934.5  6934.5    0.04    0.00    22.4   200.9    2.31   198.6   198.6    0.01
 2004 164   247       0    5974   49383     121   49263   49258     4.1    0.00   842.6  6937.3    2.88  6934.4  6934.3    0.04    0.00    22.4   200.9    2.31   198.6   198.6    0.01
 2004 165   248       0    5974   49381     120   49262   49257     4.1    0.00   842.6  6937.1    2.85  6934.3  6934.2    0.04    0.00    22.4   200.9    2.31   198.6   198.6    0.01
 2004 166   249       0    5974   49380     119   49261   49257     4.1    0.00   842.5  6936.9    2.81  6934.1  6934.1    0.04    0.00    22.4   200.9    2.31   198.6   198.6    0.01
 2004 167   250       0    5974   49378     118   49260   49256     4.1    0.00   842.5  6936.8    2.78  6934.0  6934.0    0.04    0.00    22.4   200.9    2.30   198.6   198.6    0.01
 2004 168   251       0    5974   49376     117   49259   49255     4.0    0.00   842.5  6936.7    2.75  6933.9  6933.9    0.04    0.00    22.4   200.9    2.30   198.6   198.6    0.01
 2004 169   252       0    5974   49374     116   49258   49254     4.0    0.00   842.5  6936.5    2.72  6933.8  6933.7    0.04    0.00    22.4   201.0    2.30   198.6   198.6    0.01
 2004 170   253       0    5974   49372     116   49257   49253     4.0    0.00   842.5  6936.3    2.69  6933.7  6933.6    0.04    0.00    22.4   201.0    2.30   198.7   198.6    0.01
 2004 171   254       0    5973   49371     115   49256   49252     4.0    0.00   842.5  6936.2    2.66  6933.5  6933.5    0.04    0.00    22.4   201.0    2.30   198.7   198.7    0.01
 2004 172   255       0    5973   49369     114   49255   49251     4.0    0.00   842.5  6936.0    2.63  6933.4  6933.4    0.04    0.00    22.4   201.0    2.30   198.7   198.7    0.01
 2004 173   256       0    5973   49367     114   49254   49250     3.9    0.00   842.4  6935.9    2.61  6933.3  6933.2    0.04    0.00    22.4   201.0    2.30   198.7   198.7    0.01
 2004 174   257       0    5973   49365     113   49253   49249     3.9    0.00   842.4  6935.7    2.59  6933.1  6933.1    0.04    0.00    22.4   201.0    2.30   198.7   198.7    0.01
 2004 175   258       0    5973   49364     112   49252   49248     3.9    0.00   842.4  6935.6    2.56  6933.0  6933.0    0.04    0.00    22.4   201.0    2.30   198.7   198.7    0.01
 2004 176   259       0    5973   49362     111   49251   49247     3.9    0.00   842.4  6935.4    2.53  6932.9  6932.9    0.04    0.00    22.4   201.0    2.30   198.7   198.7    0.01
 2004 177   260       0    5973   49360     111   49250   49246     3.8    0.00   842.4  6935.3    2.51  6932.8  6932.7    0.04    0.00    22.4   201.0    2.30   198.7   198.7    0.01
 2004 178   261       0    5973   49359     110   49249   49245     3.8    0.00   842.4  6935.1    2.49  6932.7  6932.6    0.04    0.00    22.4   201.0    2.30   198.7   198.7    0.01
 2004 179   262       0    5973   49357     110   49248   49244     3.8    0.00   842.3  6935.0    2.47  6932.5  6932.5    0.04    0.00    22.4   201.0    2.30   198.7   198.7    0.01
 2004 180   263       0    5973   49355     109   49247   49243     3.8    0.00   842.3  6934.9    2.45  6932.4  6932.4    0.04    0.00    22.4   201.0    2.30   198.7   198.7    0.01
 2004 181   264       0    5972   49354     108   49245   49242     3.8    0.00   842.3  6934.7    2.42  6932.3  6932.2    0.04    0.00    22.4   201.0    2.30   198.7   198.7    0.01
 2004 182   265       0    5972   49352     107   49244   49241     3.8    0.00   842.3  6934.6    2.40  6932.2  6932.1    0.04    0.00    22.4   201.0    2.30   198.7   198.7    0.01
 2004 183   266       0    5972   49350     107   49243   49240     3.8    0.00   842.3  6934.4    2.37  6932.0  6932.0    0.05    0.00    22.4   201.0    2.30   198.7   198.7    0.01
 2004 184   267       0    5972   49349     106   49242   49239     3.8    0.00   842.3  6934.3    2.35  6931.9  6931.9    0.05    0.00    22.4   201.0    2.30   198.7   198.7    0.01
 2004 185   268       0    5972   49347     105   49241   49238     3.9    0.00   842.3  6934.1    2.33  6931.8  6931.7    0.05    0.00    22.4   201.0    2.30   198.7   198.7    0.01
 2004 186   269       0    5972   49345     105   49240   49237     3.9    0.00   842.2  6934.0    2.31  6931.7  6931.6    0.05    0.00    22.4   201.1    2.30   198.8   198.7    0.01
 2004 187   270       0    5972   49344     104   49240   49236     3.9    0.00   842.2  6933.8    2.29  6931.5  6931.5    0.05    0.00    22.4   201.1    2.30   198.8   198.8    0.01
 2004 188   271       0    5972   49342     104   49239   49235     3.9    0.00   842.2  6933.7    2.27  6931.4  6931.4    0.05    0.00    22.4   201.1    2.30   198.8   198.8    0.01
 2004 189   272       0    5972   49341     103   49238   49234     4.0    0.00   842.2  6933.6    2.25  6931.3  6931.3    0.05    0.00    22.4   201.1    2.30   198.8   198.8    0.01
 2004 190   273       0    5972   49340     103   49237   49233     4.0    0.00   842.2  6933.4    2.23  6931.2  6931.1    0.06    0.00    22.4   201.1    2.30   198.8   198.8    0.01
 2004 191   274       0    5971   49338     102   49236   49232     4.1    0.00   842.2  6933.3    2.21  6931.1  6931.0    0.06    0.00    22.4   201.1    2.30   198.8   198.8    0.01
 2004 192   275       0    5971   49336     101   49235   49231     4.1    0.00   842.2  6933.1    2.18  6931.0  6930.9    0.06    0.00    22.4   201.1    2.30   198.8   198.8    0.01
 2004 193   276       0    5971   49335     101   49234   49230     4.2    0.00   842.1  6933.0    2.16  6930.8  6930.8    0.06    0.00    22.4   201.1    2.30   198.8   198.8    0.01
 2004 194   277       0    5971   49334     100   49234   49229     4.3    0.00   842.1  6932.9    2.15  6930.7  6930.7    0.06    0.00    22.4   201.1    2.30   198.8   198.8    0.01
 2004 195   278       0    5971   49332     100   49233   49228     4.3    0.00   842.1  6932.7    2.13  6930.6  6930.5    0.07    0.00    22.4   201.1    2.30   198.8   198.8    0.01
 2004 196   279       0    5971   49331      99   49232   49227     4.4    0.00   842.1  6932.6    2.11  6930.5  6930.4    0.07    0.00    22.4   201.1    2.30   198.8   198.8    0.01
 2004 197   280       0    5971   49329      98   49231   49226     4.5    0.00   842.1  6932.5    2.09  6930.4  6930.3    0.07    0.00    22.4   201.1    2.30   198.8   198.8    0.01
 2004 198   281       0    5971   49328      98   49230   49225     4.5    0.00   842.1  6932.3    2.07  6930.3  6930.2    0.07    0.00    22.4   201.1    2.30   198.8   198.8    0.01
 2004 199   282       0    5971   49326      97   49229   49225     4.6    0.00   842.1  6932.2    2.06  6930.1  6930.1    0.07    0.00    22.4   201.1    2.30   198.8   198.8    0.01
 2004 200   283       0    5971   49325      97   49228   49224     4.7    0.00   842.0  6932.1    2.04  6930.0  6929.9    0.08    0.00    22.4   201.1    2.30   198.8   198.8    0.01
 2004 201   284       0    5970   49324      96   49227   49223     4.7    0.00   842.0  6931.9    2.03  6929.9  6929.8    0.08    0.00    22.4   201.1    2.30   198.8   198.8    0.01
 2004 202   285       0    5970   49322      96   49226   49222     4.8    0.00   842.0  6931.8    2.01  6929.8  6929.7    0.08    0.00    22.4   201.2    2.30   198.9   198.8    0.01
 2004 203   286       0    5970   49321      95   49226   49221     4.9    0.00   842.0  6931.7    1.99  6929.7  6929.6    0.08    0.00    22.4   201.2    2.30   198.9   198.8    0.01
 2004 204   287       0    5970   49320      95   49225   49220     4.9    0.00   842.0  6931.5    1.98  6929.5  6929.5    0.08    0.00    22.4   201.2    2.30   198.9   198.9    0.01
 2004 205   288       0    5970   49318      94   49224   49219     5.0    0.00   842.0  6931.4    1.97  6929.4  6929.3    0.08    0.00    22.4   201.2    2.30   198.9   198.9    0.01
 2004 206   289       0    5970   49317      94   49223   49218     5.0    0.00   842.0  6931.2    1.95  6929.3  6929.2    0.08    0.00    22.4   201.2    2.30   198.9   198.9    0.01
 2004 207   290       0    5970   49315      93   49222   49217     5.1    0.00   841.9  6931.1    1.93  6929.2  6929.1    0.08    0.00    22.4   201.2    2.30   198.9   198.9    0.01
 2004 208   291       0    5970   49314      93   49221   49216     5.2    0.00   841.9  6931.0    1.92  6929.1  6929.0    0.09    0.00    22.4   201.2    2.30   198.9   198.9    0.01
 2004 209   292       0    5970   49313      93   49220   49215     5.2    0.00   841.9  6930.9    1.91  6929.0  6928.9    0.09    0.00    22.4   201.2    2.30   198.9   198.9    0.01
 2004 210   293       0    5970   49312      92   49219   49214     5.3    0.00   841.9  6930.7    1.90  6928.8  6928.8    0.09    0.00    22.4   201.2    2.30   198.9   198.9    0.01
 2004 211   294       0    5970   49310      92   49219   49213     5.3    0.00   841.9  6930.6    1.89  6928.7  6928.6    0.09    0.00    22.4   201.2    2.30   198.9   198.9    0.01
 2004 212   295       0    5969   49309      91   49218   49212     5.4    0.00   841.9  6930.5    1.87  6928.6  6928.5    0.09    0.00    22.4   201.2    2.30   198.9   198.9    0.01
 2004 213   296       0    5969   49308      91   49217   49211     5.4    0.00   841.9  6930.4    1.86  6928.5  6928.4    0.09    0.00    22.4   201.2    2.30   198.9   198.9    0.01
 2004 214   297       0    5969   49306      90   49216   49211     5.5    0.00   841.9  6930.2    1.84  6928.4  6928.3    0.09    0.00    22.4   201.2    2.30   198.9   198.9    0.01
 2004 215   298       0    5969   49305      90   49215   49210     5.6    0.00   841.8  6930.1    1.82  6928.3  6928.2    0.09    0.00    22.4   201.2    2.30   198.9   198.9    0.01
 2004 216   299       0    5969   49304      89   49215   49209     5.6    0.00   841.8  6930.0    1.81  6928.2  6928.1    0.09    0.00    22.4   201.2    2.30   198.9   198.9    0.01
 2004 217   300       0    5969   49303      89   49214   49208     5.7    0.00   841.8  6929.9    1.80  6928.1  6928.0    0.09    0.00    22.4   201.2    2.30   198.9   198.9    0.01
 2004 218   301       0    5969   49301      88   49213   49207     5.7    0.00   841.8  6929.7    1.78  6928.0  6927.9    0.10    0.00    22.4   201.2    2.30   198.9   198.9    0.01
 2004 219   302       0    5969   49300      88   49212   49206     5.8    0.00   841.8  6929.6    1.77  6927.9  6927.8    0.10    0.00    22.4   201.3    2.30   199.0   198.9    0.01
 2004 220   303       0    5969   49299      87   49211   49205     5.8    0.00   841.8  6929.5    1.76  6927.7  6927.6    0.10    0.00    22.4   201.3    2.30   199.0   198.9    0.01
 2004 221   304       0    5969   49297      87   49210   49204     5.9    0.00   841.8  6929.4    1.74  6927.6  6927.5    0.10    0.00    22.4   201.3    2.30   199.0   199.0    0.01
 2004 222   305       0    5968   49296      87   49210   49204     6.0    0.00   841.7  6929.2    1.73  6927.5  6927.4    0.10    0.00    22.4   201.3    2.30   199.0   199.0    0.01
 2004 223   306       0    5968   49295      86   49209   49203     5.8    0.00   841.7  6929.1    1.72  6927.4  6927.3    0.09    0.00    22.4   201.3    2.30   199.0   199.0    0.01
 2004 224   307       0    5968   49293      86   49207   49202     5.7    0.00   841.7  6929.0    1.70  6927.3  6927.2    0.09    0.00    22.4   201.3    2.30   199.0   199.0    0.01
 2004 225   308       0    5968   49292      85   49207   49201     5.8    0.00   841.7  6928.8    1.69  6927.1  6927.1    0.09    0.00    22.4   201.3    2.30   199.0   199.0    0.01
 2004 226   309       0    5968   49290      85   49206   49200     5.8    0.00   841.7  6928.7    1.68  6927.0  6926.9    0.09    0.00    22.4   201.3    2.30   199.0   199.0    0.01
 2004 227   310       0    5968   49289      84   49205   49199     6.0    0.00   841.7  6928.6    1.66  6926.9  6926.8    0.10    0.00    22.4   201.3    2.30   199.0   199.0    0.01
 2004 228   311       0    5968   49288      84   49204   49198     5.9    0.00   841.7  6928.5    1.65  6926.8  6926.7    0.09    0.00    22.4   201.3    2.30   199.0   199.0    0.01
 2004 229   312       0    5968   49287      84   49203   49197     5.9    0.00   841.6  6928.3    1.63  6926.7  6926.6    0.09    0.00    22.4   201.3    2.30   199.0   199.0    0.01
 2004 230   313       0    5968   49285      83   49202   49196     5.8    0.00   841.6  6928.2    1.62  6926.6  6926.5    0.09    0.00    22.4   201.3    2.30   199.0   199.0    0.01
 2004 231   314       0    5968   49284      83   49201   49195     5.6    0.00   841.6  6928.1    1.61  6926.4  6926.4    0.09    0.00    22.4   201.3    2.30   199.0   199.0    0.01
 2004 232   315       0    5967   49282      83   49200   49194     5.5    0.00   841.6  6927.9    1.59  6926.3  6926.2    0.08    0.00    22.4   201.3    2.30   199.0   199.0    0.01
 2004 233   316       0    5967   49281      82   49199   49193     5.4    0.00   841.6  6927.8    1.59  6926.2  6926.1    0.08    0.00    22.4   201.3    2.30   199.0   199.0    0.01
 2004 234   317       0    5967   49279      82   49198   49192     5.5    0.00   841.6  6927.7    1.57  6926.1  6926.0    0.08    0.00    22.4   201.3    2.30   199.0   199.0    0.01
 2004 235   318       0    5967   49278      81   49197   49191     5.7    0.00   841.6  6927.5    1.56  6926.0  6925.9    0.09    0.00    22.4   201.3    2.30   199.0   199.0    0.01
 2004 236   319       0    5967   49277      81   49196   49190     5.9    0.00   841.5  6927.4    1.55  6925.9  6925.8    0.09    0.00    22.4   201.3    2.30   199.1   199.0    0.01
 2004 237   320       0    5967   49276      81   49195   49189     6.0    0.00   841.5  6927.3    1.54  6925.8  6925.7    0.09    0.00    22.4   201.4    2.30   199.1   199.0    0.01
 2004 238   321       0    5967   49275      81   49194   49188     5.9    0.00   841.5  6927.2    1.53  6925.6  6925.6    0.09    0.00    22.4   201.4    2.30   199.1   199.1    0.01
 2004 239   322       0    5967   49273      80   49193   49188     5.8    0.00   841.5  6927.0    1.52  6925.5  6925.4    0.09    0.00    22.4   201.4    2.30   199.1   199.1    0.01
 2004 240   323       0    5967   49272      80   49192   49187     5.6    0.00   841.5  6926.9    1.51  6925.4  6925.3    0.08    0.00    22.4   201.4    2.30   199.1   199.1    0.01
 2004 241   324       0    5967   49271      79   49191   49186     5.5    0.00   841.5  6926.8    1.50  6925.3  6925.2    0.08    0.00    22.4   201.4    2.30   199.1   199.1    0.01
 2004 242   325       0    5966   49269      79   49190   49185     5.4    0.00   841.5  6926.6    1.49  6925.2  6925.1    0.08    0.00    22.4   201.4    2.30   199.1   199.1    0.01
 2004 243   326       0    5966   49267      79   49189   49184     5.3    0.00   841.4  6926.5    1.48  6925.0  6924.9    0.08    0.00    22.4   201.4    2.30   199.1   199.1    0.01
 2004 244   327       0    5966   49266      78   49188   49183     5.5    0.00   841.4  6926.4    1.47  6924.9  6924.8    0.08    0.00    22.4   201.4    2.30   199.1   199.1    0.01
 2004 245   328       0    5966   49265      78   49187   49181     5.6    0.00   841.4  6926.2    1.46  6924.8  6924.7    0.08    0.00    22.4   201.4    2.30   199.1   199.1    0.01
 2004 246   329       0    5966   49263      77   49186   49180     5.5    0.00   841.4  6926.1    1.45  6924.6  6924.6    0.08    0.00    22.4   201.4    2.30   199.1   199.1    0.01
 2004 247   330       0    5966   49262      77   49185   49179     5.7    0.00   841.4  6925.9    1.43  6924.5  6924.4    0.08    0.00    22.4   201.4    2.30   199.1   199.1    0.01
 2004 248   331       0    5966   49261      77   49184   49178     6.0    0.00   841.4  6925.8    1.42  6924.4  6924.3    0.08    0.00    22.4   201.4    2.30   199.1   199.1    0.01
 2004 249   332       0    5966   49260      77   49183   49177     5.9    0.00   841.4  6925.7    1.41  6924.3  6924.2    0.08    0.00    22.4   201.4    2.30   199.1   199.1    0.01
 2004 250   333       0    5966   49258      76   49182   49176     5.8    0.00   841.4  6925.6    1.40  6924.2  6924.1    0.08    0.00    22.4   201.4    2.30   199.1   199.1    0.01
 2004 251   334       0    5965   49257      76   49181   49175     5.6    0.00   841.3  6925.4    1.39  6924.0  6924.0    0.08    0.00    22.4   201.4    2.30   199.1   199.1    0.01
 2004 252   335       0    5965   49255      75   49180   49174     5.5    0.00   841.3  6925.3    1.38  6923.9  6923.8    0.07    0.00    22.4   201.4    2.30   199.1   199.1    0.01
 2004 253   336       0    5965   49254      75   49179   49173     5.4    0.00   841.3  6925.1    1.37  6923.8  6923.7    0.07    0.00    22.4   201.5    2.30   199.2   199.1    0.01
 2004 254   337       0    5965   49252      75   49178   49172     5.6    0.00   841.3  6925.0    1.37  6923.6  6923.6    0.07    0.00    22.4   201.5    2.30   199.2   199.2    0.01
 2004 255   338       0    5965   49251      74   49177   49171     5.8    0.00   841.3  6924.9    1.36  6923.5  6923.4    0.08    0.00    22.4   201.5    2.30   199.2   199.2    0.01
 2004 256   339       0    5965   49250      74   49176   49170     6.0    0.00   841.3  6924.7    1.35  6923.4  6923.3    0.08    0.00    22.4   201.5    2.30   199.2   199.2    0.01
 2004 257   340       0    5965   49249      74   49175   49169     6.2    0.00   841.3  6924.6    1.34  6923.3  6923.2    0.08    0.00    22.4   201.5    2.30   199.2   199.2    0.01
 2004 258   341       0    5965   49248      74   49174   49168     6.4    0.00   841.2  6924.5    1.33  6923.1  6923.1    0.09    0.00    22.4   201.5    2.30   199.2   199.2    0.01
 2004 259   342       0    5965   49247      73   49174   49167     6.6    0.00   841.2  6924.4    1.32  6923.0  6923.0    0.09    0.00    22.4   201.5    2.30   199.2   199.2    0.01
 2004 260   343       0    5964   49246      73   49173   49166     6.9    0.00   841.2  6924.3    1.31  6922.9  6922.8    0.09    0.00    22.4   201.5    2.30   199.2   199.2    0.01
 2004 261   344       0    5964   49245      73   49172   49165     6.7    0.00   841.2  6924.1    1.30  6922.8  6922.8    0.09    0.00    22.4   201.5    2.30   199.2   199.2    0.01
 2004 262   345       0    5964   49243      73   49171   49164     6.6    0.00   841.2  6924.0    1.30  6922.7  6922.6    0.09    0.00    22.4   201.5    2.30   199.2   199.2    0.01
 2004 263   346       0    5964   49242      72   49170   49163     6.4    0.00   841.2  6923.9    1.29  6922.6  6922.5    0.08    0.00    22.4   201.5    2.30   199.2   199.2    0.01
 2004 264   347       0    5964   49241      72   49168   49162     6.3    0.00   841.2  6923.8    1.28  6922.5  6922.4    0.08    0.00    22.4   201.5    2.30   199.2   199.2    0.01
 2004 265   348       0    5964   49239      72   49168   49161     6.4    0.00   841.1  6923.6    1.28  6922.3  6922.3    0.08    0.00    22.4   201.5    2.30   199.2   199.2    0.01
 2004 266   349       0    5964   49238      71   49167   49160     6.5    0.00   841.1  6923.5    1.27  6922.2  6922.1    0.08    0.00    22.4   201.5    2.30   199.2   199.2    0.01
 2004 267   350       0    5964   49237      71   49165   49159     6.4    0.00   841.1  6923.3    1.26  6922.1  6922.0    0.08    0.00    22.4   201.5    2.30   199.2   199.2    0.01
 2004 268   351       0    5964   49235      71   49164   49158     6.2    0.00   841.1  6923.2    1.26  6922.0  6921.9    0.08    0.00    22.4   201.5    2.30   199.2   199.2    0.01
 2004 269   352       0    5963   49233      70   49163   49157     6.1    0.00   841.1  6923.1    1.25  6921.8  6921.7    0.08    0.00    22.4   201.5    2.30   199.2   199.2    0.01
 2004 270   353       0    5963   49232      70   49162   49156     6.0    0.00   841.1  6922.9    1.24  6921.7  6921.6    0.08    0.00    22.4   201.6    2.30   199.3   199.2    0.01
 2004 271   354       0    5963   49230      70   49161   49155     5.9    0.00   841.1  6922.8    1.24  6921.6  6921.5    0.07    0.00    22.4   201.6    2.30   199.3   199.3    0.01
 2004 272   355       0    5963   49229      69   49160   49154     5.7    0.00   841.0  6922.7    1.23  6921.4  6921.4    0.07    0.00    22.4   201.6    2.30   199.3   199.3    0.01
 2004 273   356       0    5963   49227      69   49158   49153     5.6    0.00   841.0  6922.5    1.22  6921.3  6921.2    0.07    0.00    22.4   201.6    2.30   199.3   199.3    0.01
 2004 274   357       0    5963   49226      69   49157   49152     5.5    0.00   841.0  6922.4    1.21  6921.2  6921.1    0.07    0.00    22.4   201.6    2.30   199.3   199.3    0.01
 2004 275   358       0    5963   49224      68   49156   49150     5.4    0.00   841.0  6922.2    1.21  6921.0  6921.0    0.07    0.00    22.4   201.6    2.30   199.3   199.3    0.01
 2004 276   359       0    5963   49223      68   49155   49149     5.3    0.00   841.0  6922.1    1.20  6920.9  6920.8    0.06    0.00    22.4   201.6    2.30   199.3   199.3    0.01
 2004 277   360       0    5962   49221      68   49153   49148     5.2    0.00   841.0  6921.9    1.19  6920.7  6920.7    0.06    0.00    22.4   201.6    2.30   199.3   199.3    0.01
 2004 278   361       0    5962   49220      67   49152   49147     5.1    0.00   840.9  6921.8    1.18  6920.6  6920.6    0.06    0.00    22.4   201.6    2.30   199.3   199.3    0.01
 2004 279   362       0    5962   49218      67   49151   49146     5.0    0.00   840.9  6921.7    1.18  6920.5  6920.4    0.06    0.00    22.4   201.6    2.30   199.3   199.3    0.01
 2004 280   363       0    5962   49217      67   49150   49145     5.0    0.00   840.9  6921.5    1.17  6920.3  6920.3    0.06    0.00    22.4   201.6    2.30   199.3   199.3    0.01
 2004 281   364       0    5962   49215      66   49149   49144     4.9    0.00   840.9  6921.4    1.17  6920.2  6920.2    0.06    0.00    22.4   201.6    2.30   199.3   199.3    0.01
 2004 282   365       0    5962   49214      66   49147   49143     4.8    0.00   840.9  6921.2    1.16  6920.1  6920.0    0.06    0.00    22.4   201.6    2.30   199.3   199.3    0.01
 2004 283   366       0    5962   49212      66   49146   49142     4.8    0.00   840.9  6921.1    1.16  6920.0  6919.9    0.06    0.00    22.4   201.6    2.30   199.3   199.3    0.01
 2004 284   367       0    5962   49211      66   49145   49140     4.7    0.00   840.9  6921.0    1.15  6919.8  6919.8    0.05    0.00    22.4   201.6    2.30   199.3   199.3    0.01
 2004 285   368       0    5962   49210      66   49144   49139     4.6    0.00   840.8  6920.8    1.15  6919.7  6919.6    0.05    0.00    22.4   201.7    2.30   199.4   199.3    0.01
 2004 286   369       0    5961   49208      65   49143   49138     4.6    0.00   840.8  6920.7    1.15  6919.6  6919.5    0.05    0.00    22.4   201.7    2.30   199.4   199.4    0.01
 2004 287   370       0    5961   49207      65   49142   49137     4.5    0.00   840.8  6920.6    1.14  6919.4  6919.4    0.05    0.00    22.4   201.7    2.30   199.4   199.4    0.01
 2004 288   371       0    5961   49205      65   49140   49136     4.4    0.00   840.8  6920.4    1.13  6919.3  6919.2    0.05    0.00    22.4   201.7    2.30   199.4   199.4    0.01
 2004 289   372       0    5961   49204      64   49139   49135     4.4    0.00   840.8  6920.3    1.13  6919.1  6919.1    0.05    0.00    22.4   201.7    2.30   199.4   199.4    0.01
 2004 290   373       0    5961   49202      64   49138   49134     4.3    0.00   840.8  6920.1    1.12  6919.0  6919.0    0.05    0.00    22.4   201.7    2.30   199.4   199.4    0.01
 2004 291   374       0    5961   49201      64   49137   49133     4.3    0.00   840.7  6920.0    1.11  6918.9  6918.8    0.05    0.00    22.4   201.7    2.30   199.4   199.4    0.01
 2004 292   375       0    5961   49199      64   49136   49131     4.2    0.00   840.7  6919.9    1.11  6918.8  6918.7    0.05    0.00    22.4   201.7    2.30   199.4   199.4    0.01
 2004 293   376       0    5961   49198      64   49135   49130     4.2    0.00   840.7  6919.7    1.11  6918.6  6918.6    0.05    0.00    22.4   201.7    2.30   199.4   199.4    0.01
 2004 294   377       0    5960   49197      63   49133   49129     4.2    0.00   840.7  6919.6    1.10  6918.5  6918.4    0.05    0.00    22.4   201.7    2.30   199.4   199.4    0.01

*DSSAT Cropping System Model Ver. 4.5.1.023 -Stub         NOV 07, 2014; 01:44:25
                                                                                
*RUN   2        : N0 P60                    MZCER045 GHWA0401    2              
 MODEL          : MZCER045 - Maize                                              
 EXPERIMENT     : GHWA0401 MZ ON-STATION NXP (EXPERIMENT NO.2) 9 TRT            
 DATA PATH      :                                                               
 TREATMENT  2   : N0 P60                    MZCER045                            
  
@YEAR DOY   DAS    OMAC    SCDD    SOCD    SC0D    SCTD   SOMCT    LCTD    ONAC    SNDD    SOND    SN0D    SNTD   SOMNT    LNTD    OPAC    SPDD    SOPD    SP0D    SPTD   SOMPT    LPTD
 2003 282     0       0    5976   50667    1024   49643   49431   212.4    0.00   843.0  6992.0   28.17  6963.8  6959.0    4.78    0.00    22.3   204.3    6.56   197.8   196.9    0.85
 2003 283     1       0    5977   50633     997   49635   49435   200.6    0.00   843.1  6991.6   27.94  6963.7  6959.2    4.45    0.00    22.3   204.1    6.32   197.8   197.0    0.79
 2003 284     2       0    5978   50603     975   49628   49438   190.0    0.00   843.1  6991.2   27.71  6963.5  6959.4    4.15    0.00    22.3   203.9    6.13   197.8   197.0    0.74
 2003 285     3       0    5979   50575     953   49622   49441   180.2    0.00   843.2  6990.9   27.49  6963.4  6959.5    3.88    0.00    22.3   203.8    5.95   197.8   197.1    0.70
 2003 286     4       0    5980   50545     930   49615   49445   170.7    0.00   843.2  6990.5   27.23  6963.3  6959.6    3.61    0.00    22.4   203.6    5.77   197.8   197.2    0.65
 2003 287     5       0    5981   50516     906   49609   49447   161.9    0.00   843.3  6990.1   26.94  6963.1  6959.7    3.37    0.00    22.4   203.4    5.57   197.8   197.2    0.61
 2003 288     6       0    5982   50490     886   49604   49450   154.0    0.00   843.3  6989.6   26.66  6963.0  6959.8    3.15    0.00    22.4   203.3    5.42   197.8   197.3    0.57
 2003 289     7       0    5982   50468     868   49600   49452   147.6    0.00   843.3  6989.2   26.39  6962.8  6959.9    2.97    0.00    22.4   203.1    5.28   197.9   197.3    0.54
 2003 290     8       0    5983   50447     852   49595   49454   141.7    0.00   843.3  6988.9   26.14  6962.7  6959.9    2.81    0.00    22.4   203.0    5.16   197.9   197.3    0.52
 2003 291     9       0    5983   50429     837   49592   49455   136.3    0.00   843.4  6988.5   25.90  6962.6  6959.9    2.66    0.00    22.4   202.9    5.05   197.9   197.4    0.49
 2003 292    10       0    5984   50408     821   49588   49457   131.0    0.00   843.4  6988.1   25.65  6962.4  6959.9    2.51    0.00    22.4   202.8    4.93   197.9   197.4    0.47
 2003 293    11       0    5984   50389     806   49584   49458   125.7    0.00   843.4  6987.6   25.38  6962.3  6959.9    2.37    0.00    22.4   202.7    4.82   197.9   197.5    0.44
 2003 294    12       0    5984   50373     793   49580   49459   120.8    0.00   843.4  6987.2   25.13  6962.1  6959.9    2.23    0.00    22.4   202.7    4.74   197.9   197.5    0.42
 2003 295    13       0    5985   50359     783   49576   49460   116.4    0.00   843.4  6986.9   24.92  6961.9  6959.8    2.11    0.00    22.4   202.6    4.67   197.9   197.5    0.40
 2003 296    14       0    5985   50347     774   49573   49461   112.1    0.00   843.4  6986.5   24.74  6961.8  6959.8    2.00    0.00    22.4   202.6    4.61   198.0   197.6    0.38
 2003 297    15       0    5985   50328     759   49569   49461   107.5    0.00   843.4  6986.1   24.52  6961.6  6959.7    1.87    0.00    22.4   202.5    4.50   198.0   197.6    0.36
 2003 298    16       0    5986   50308     742   49565   49462   103.0    0.00   843.4  6985.6   24.19  6961.4  6959.6    1.76    0.00    22.5   202.4    4.39   198.0   197.6    0.34
 2003 299    17       0    5986   50290     727   49562   49463    99.2    0.00   843.4  6985.1   23.84  6961.2  6959.6    1.65    0.00    22.5   202.3    4.30   198.0   197.7    0.32
 2003 300    18       0    5986   50274     715   49559   49464    95.7    0.00   843.4  6984.6   23.53  6961.1  6959.5    1.56    0.00    22.5   202.2    4.22   198.0   197.7    0.31
 2003 301    19       0    5987   50261     704   49557   49464    92.5    0.00   843.4  6984.2   23.26  6960.9  6959.4    1.48    0.00    22.5   202.2    4.16   198.0   197.7    0.29
 2003 302    20       0    5987   50249     695   49554   49464    89.7    0.00   843.4  6983.8   23.03  6960.7  6959.3    1.40    0.00    22.5   202.1    4.11   198.0   197.8    0.28
 2003 303    21       0    5987   50239     687   49552   49464    87.1    0.00   843.4  6983.4   22.83  6960.6  6959.2    1.34    0.00    22.5   202.1    4.07   198.0   197.8    0.27
 2003 304    22       0    5987   50224     676   49549   49464    84.4    0.00   843.4  6983.0   22.63  6960.4  6959.1    1.27    0.00    22.5   202.0    3.99   198.1   197.8    0.25
 2003 305    23       0    5987   50210     663   49547   49465    81.9    0.00   843.4  6982.5   22.30  6960.2  6959.0    1.20    0.00    22.5   202.0    3.92   198.1   197.8    0.24
 2003 306    24       0    5987   50198     653   49545   49465    79.6    0.00   843.4  6982.1   22.00  6960.1  6959.0    1.14    0.00    22.5   201.9    3.87   198.1   197.8    0.23
 2003 307    25       0    5988   50186     644   49543   49465    77.5    0.00   843.4  6981.7   21.74  6959.9  6958.9    1.09    0.00    22.5   201.9    3.82   198.1   197.9    0.23
 2003 308    26       0    5988   50177     636   49541   49465    75.6    0.00   843.4  6981.3   21.51  6959.8  6958.7    1.04    0.00    22.5   201.9    3.78   198.1   197.9    0.22
 2003 309    27       0    5988   50168     629   49539   49465    73.9    0.00   843.3  6981.0   21.31  6959.6  6958.6    1.00    0.00    22.5   201.9    3.75   198.1   197.9    0.21
 2003 310    28       0    5988   50160     624   49537   49464    72.2    0.00   843.3  6980.6   21.14  6959.5  6958.5    0.96    0.00    22.5   201.8    3.72   198.1   197.9    0.20
 2003 311    29       0    5988   50150     616   49534   49464    70.5    0.00   843.3  6980.3   20.98  6959.3  6958.4    0.92    0.00    22.5   201.8    3.67   198.1   197.9    0.19
 2003 312    30       0    5988   50139     606   49533   49464    68.8    0.00   843.3  6979.8   20.70  6959.2  6958.3    0.88    0.00    22.5   201.8    3.63   198.1   198.0    0.19
 2003 313    31       0    5988   50128     596   49531   49464    67.3    0.00   843.3  6979.4   20.42  6959.0  6958.2    0.84    0.00    22.5   201.7    3.58   198.2   198.0    0.18
 2003 314    32       0    5988   50116     587   49530   49464    65.7    0.00   843.3  6978.9   20.11  6958.8  6958.0    0.80    0.00    22.5   201.7    3.53   198.2   198.0    0.17
 2003 315    33       0    5988   50106     578   49528   49464    64.4    0.00   843.3  6978.5   19.83  6958.7  6957.9    0.77    0.00    22.5   201.7    3.50   198.2   198.0    0.17
 2003 316    34       0    5988   50098     572   49526   49463    63.1    0.00   843.2  6978.1   19.60  6958.5  6957.8    0.74    0.00    22.5   201.7    3.47   198.2   198.0    0.16
 2003 317    35       0    5988   50090     566   49525   49463    61.9    0.00   843.2  6977.8   19.40  6958.4  6957.6    0.72    0.00    22.5   201.6    3.44   198.2   198.0    0.16
 2003 318    36       0    5988   50083     560   49523   49462    60.8    0.00   843.2  6977.4   19.22  6958.2  6957.5    0.69    0.00    22.5   201.6    3.42   198.2   198.1    0.15
 2003 319    37       0    5988   50077     556   49521   49461    59.7    0.00   843.2  6977.1   19.06  6958.0  6957.3    0.67    0.00    22.5   201.6    3.40   198.2   198.1    0.15
 2003 320    38       0    5988   50071     552   49519   49460    58.7    0.00   843.2  6976.8   18.92  6957.8  6957.2    0.65    0.00    22.5   201.6    3.39   198.2   198.1    0.15
 2003 321    39       0    5988   50065     548   49517   49459    57.7    0.00   843.2  6976.4   18.80  6957.7  6957.0    0.63    0.00    22.5   201.6    3.37   198.2   198.1    0.14
 2003 322    40       0    5988   50061     546   49515   49458    56.8    0.00   843.1  6976.2   18.69  6957.5  6956.9    0.61    0.00    22.5   201.6    3.36   198.2   198.1    0.14
 2003 323    41       0    5988   50056     543   49513   49457    56.0    0.00   843.1  6975.9   18.61  6957.3  6956.7    0.59    0.00    22.5   201.6    3.35   198.3   198.1    0.14
 2003 324    42       0    5988   50052     541   49511   49456    55.2    0.00   843.1  6975.6   18.54  6957.1  6956.5    0.58    0.00    22.5   201.6    3.35   198.3   198.1    0.13
 2003 325    43       0    5988   50049     540   49509   49454    54.5    0.00   843.1  6975.4   18.48  6956.9  6956.3    0.56    0.00    22.5   201.6    3.34   198.3   198.1    0.13
 2003 326    44       0    5987   50046     539   49507   49453    53.8    0.00   843.1  6975.2   18.44  6956.7  6956.2    0.55    0.00    22.5   201.6    3.34   198.3   198.2    0.13
 2003 327    45       0    5987   50043     538   49505   49452    53.1    0.00   843.0  6974.9   18.41  6956.5  6956.0    0.53    0.00    22.5   201.6    3.34   198.3   198.2    0.12
 2003 328    46       0    5987   50040     538   49503   49450    52.5    0.00   843.0  6974.7   18.40  6956.3  6955.8    0.52    0.00    22.5   201.6    3.34   198.3   198.2    0.12
 2003 329    47       0    5987   50038     537   49500   49449    51.9    0.00   843.0  6974.5   18.39  6956.2  6955.6    0.51    0.00    22.5   201.6    3.33   198.3   198.2    0.12
[...]
 2004 187   270       0    6048   49975     350   49624   49592    32.6    0.00   845.5  6955.6    7.58  6948.0  6947.6    0.38    0.00    23.5   209.4    5.43   203.9   203.9    0.06
 2004 188   271       0    6048   49972     348   49624   49591    32.5    0.00   845.4  6955.4    7.51  6947.9  6947.5    0.38    0.00    23.5   209.4    5.43   203.9   203.9    0.06
 2004 189   272       0    6048   49969     347   49623   49591    32.4    0.00   845.4  6955.2    7.44  6947.8  6947.4    0.38    0.00    23.5   209.4    5.42   203.9   203.9    0.06
 2004 190   273       0    6048   49967     345   49622   49590    32.4    0.00   845.4  6955.1    7.38  6947.7  6947.3    0.38    0.00    23.5   209.4    5.42   204.0   203.9    0.06
 2004 191   274       0    6048   49964     342   49622   49589    32.3    0.00   845.4  6954.9    7.32  6947.6  6947.2    0.39    0.00    23.5   209.4    5.42   204.0   203.9    0.06
 2004 192   275       0    6048   49961     340   49621   49588    32.3    0.00   845.4  6954.7    7.24  6947.5  6947.1    0.39    0.00    23.5   209.4    5.42   204.0   203.9    0.06
 2004 193   276       0    6048   49959     339   49620   49588    32.4    0.00   845.4  6954.6    7.18  6947.4  6947.0    0.39    0.00    23.5   209.4    5.42   204.0   203.9    0.06
 2004 194   277       0    6048   49956     337   49620   49587    32.4    0.00   845.4  6954.4    7.13  6947.3  6946.9    0.40    0.00    23.5   209.4    5.42   204.0   203.9    0.06
 2004 195   278       0    6048   49954     335   49619   49586    32.5    0.00   845.4  6954.2    7.07  6947.2  6946.8    0.41    0.00    23.5   209.4    5.42   204.0   203.9    0.06
 2004 196   279       0    6048   49951     333   49618   49586    32.7    0.00   845.4  6954.1    7.00  6947.1  6946.6    0.41    0.00    23.5   209.4    5.42   204.0   203.9    0.06
 2004 197   280       0    6048   49949     331   49618   49585    32.9    0.00   845.3  6953.9    6.95  6947.0  6946.5    0.43    0.00    23.5   209.4    5.42   204.0   204.0    0.06
 2004 198   281       0    6048   49947     329   49618   49584    33.2    0.00   845.3  6953.7    6.89  6946.9  6946.4    0.44    0.00    23.5   209.4    5.41   204.0   204.0    0.06
 2004 199   282       0    6048   49945     327   49617   49584    33.5    0.00   845.3  6953.6    6.83  6946.8  6946.3    0.45    0.00    23.5   209.4    5.41   204.0   204.0    0.06
 2004 200   283       0    6048   49943     326   49617   49583    33.9    0.00   845.3  6953.4    6.77  6946.7  6946.2    0.47    0.00    23.5   209.5    5.41   204.0   204.0    0.06
 2004 201   284       0    6048   49941     324   49617   49582    34.4    0.00   845.3  6953.3    6.73  6946.6  6946.1    0.48    0.00    23.5   209.5    5.41   204.1   204.0    0.06
 2004 202   285       0    6048   49939     322   49616   49582    34.8    0.00   845.3  6953.2    6.67  6946.5  6946.0    0.49    0.00    23.5   209.5    5.41   204.1   204.0    0.06
 2004 203   286       0    6048   49937     320   49617   49581    35.5    0.00   845.3  6953.0    6.61  6946.4  6945.9    0.52    0.00    23.5   209.5    5.41   204.1   204.0    0.07
 2004 204   287       0    6048   49935     319   49616   49580    36.0    0.00   845.3  6952.9    6.56  6946.3  6945.8    0.53    0.00    23.5   209.5    5.41   204.1   204.0    0.07
 2004 205   288       0    6048   49933     317   49616   49580    36.6    0.00   845.3  6952.7    6.51  6946.2  6945.7    0.55    0.00    23.5   209.5    5.41   204.1   204.0    0.07
 2004 206   289       0    6048   49931     315   49616   49579    37.3    0.00   845.3  6952.6    6.46  6946.1  6945.6    0.57    0.00    23.5   209.5    5.41   204.1   204.0    0.07
 2004 207   290       0    6048   49930     313   49617   49578    38.2    0.00   845.3  6952.5    6.39  6946.1  6945.5    0.60    0.00    23.5   209.5    5.40   204.1   204.0    0.07
 2004 208   291       0    6048   49929     312   49617   49578    39.1    0.00   845.3  6952.3    6.34  6946.0  6945.4    0.63    0.00    23.5   209.5    5.40   204.1   204.1    0.07
 2004 209   292       0    6048   49928     311   49618   49577    40.2    0.00   845.3  6952.3    6.30  6946.0  6945.3    0.66    0.00    23.5   209.5    5.40   204.1   204.1    0.07
 2004 210   293       0    6048   49928     310   49618   49577    41.2    0.00   845.3  6952.2    6.28  6945.9  6945.2    0.69    0.00    23.5   209.5    5.40   204.1   204.1    0.07
 2004 211   294       0    6048   49927     308   49619   49577    42.1    0.00   845.3  6952.1    6.23  6945.8  6945.1    0.71    0.00    23.5   209.6    5.40   204.2   204.1    0.07
 2004 212   295       0    6048   49925     306   49619   49576    43.1    0.00   845.2  6952.0    6.19  6945.8  6945.0    0.74    0.00    23.5   209.6    5.40   204.2   204.1    0.07
 2004 213   296       0    6048   49924     304   49620   49576    44.1    0.00   845.2  6951.8    6.13  6945.7  6944.9    0.77    0.00    23.5   209.6    5.40   204.2   204.1    0.07
 2004 214   297       0    6048   49923     303   49621   49575    45.1    0.00   845.2  6951.7    6.08  6945.7  6944.9    0.79    0.00    23.5   209.6    5.40   204.2   204.1    0.07
 2004 215   298       0    6048   49923     301   49621   49575    46.3    0.00   845.2  6951.6    6.04  6945.6  6944.8    0.82    0.00    23.5   209.6    5.40   204.2   204.1    0.08
 2004 216   299       0    6048   49921     299   49622   49575    47.2    0.00   845.2  6951.5    5.98  6945.5  6944.7    0.84    0.00    23.5   209.6    5.40   204.2   204.1    0.08
 2004 217   300       0    6048   49920     298   49623   49574    48.1    0.00   845.2  6951.4    5.94  6945.5  6944.6    0.87    0.00    23.5   209.6    5.40   204.2   204.1    0.08
 2004 218   301       0    6048   49919     296   49623   49574    49.1    0.00   845.2  6951.3    5.89  6945.4  6944.5    0.89    0.00    23.5   209.6    5.39   204.2   204.2    0.08
 2004 219   302       0    6049   49919     295   49624   49574    50.1    0.00   845.2  6951.2    5.85  6945.3  6944.4    0.91    0.00    23.5   209.6    5.39   204.2   204.2    0.08
 2004 220   303       0    6049   49918     294   49624   49573    51.1    0.00   845.2  6951.1    5.81  6945.2  6944.3    0.93    0.00    23.5   209.7    5.39   204.3   204.2    0.08
 2004 221   304       0    6049   49917     292   49625   49573    52.0    0.00   845.2  6950.9    5.77  6945.2  6944.2    0.94    0.00    23.5   209.7    5.39   204.3   204.2    0.08
 2004 222   305       0    6049   49916     291   49626   49572    53.3    0.00   845.2  6950.8    5.72  6945.1  6944.1    0.97    0.00    23.5   209.7    5.39   204.3   204.2    0.08
 2004 223   306       0    6049   49915     289   49626   49572    54.2    0.00   845.2  6950.7    5.69  6945.0  6944.1    0.98    0.00    23.5   209.7    5.39   204.3   204.2    0.08
 2004 224   307       0    6049   49914     287   49627   49572    55.0    0.00   845.2  6950.6    5.65  6944.9  6944.0    0.99    0.00    23.5   209.7    5.39   204.3   204.2    0.08
 2004 225   308       0    6049   49913     286   49627   49571    55.9    0.00   845.2  6950.5    5.60  6944.9  6943.9    1.01    0.00    23.5   209.7    5.39   204.3   204.2    0.09
 2004 226   309       0    6049   49912     284   49628   49571    56.9    0.00   845.1  6950.3    5.56  6944.8  6943.8    1.02    0.00    23.5   209.7    5.39   204.3   204.2    0.09
 2004 227   310       0    6049   49912     283   49629   49571    58.0    0.00   845.1  6950.2    5.52  6944.7  6943.7    1.04    0.00    23.5   209.7    5.39   204.3   204.3    0.09
 2004 228   311       0    6049   49909     282   49627   49570    56.5    0.00   845.1  6950.1    5.48  6944.6  6943.6    1.00    0.00    23.5   209.7    5.39   204.4   204.3    0.09
 2004 229   312       0    6049   49906     280   49625   49570    55.3    0.00   845.1  6949.9    5.44  6944.5  6943.5    0.97    0.00    23.5   209.8    5.39   204.4   204.3    0.09
 2004 230   313       0    6049   49903     279   49624   49570    53.9    0.00   845.1  6949.8    5.41  6944.4  6943.4    0.93    0.00    23.5   209.8    5.38   204.4   204.3    0.08
 2004 231   314       0    6049   49899     277   49622   49569    52.6    0.00   845.1  6949.6    5.37  6944.2  6943.3    0.89    0.00    23.5   209.8    5.38   204.4   204.3    0.08
 2004 232   315       0    6049   49896     276   49620   49569    51.5    0.00   845.1  6949.4    5.33  6944.1  6943.2    0.87    0.00    23.6   209.8    5.38   204.4   204.3    0.08
 2004 233   316       0    6049   49893     274   49619   49568    50.5    0.00   845.1  6949.2    5.29  6943.9  6943.1    0.84    0.00    23.6   209.8    5.38   204.4   204.3    0.08
 2004 234   317       0    6049   49893     273   49620   49568    52.1    0.00   845.1  6949.1    5.25  6943.9  6943.0    0.87    0.00    23.6   209.8    5.38   204.4   204.3    0.08
 2004 235   318       0    6049   49893     271   49621   49567    53.8    0.00   845.1  6949.0    5.21  6943.8  6942.9    0.90    0.00    23.6   209.8    5.38   204.4   204.3    0.08
 2004 236   319       0    6049   49892     270   49622   49567    55.2    0.00   845.1  6948.9    5.17  6943.8  6942.8    0.93    0.00    23.6   209.8    5.38   204.4   204.4    0.09
 2004 237   320       0    6049   49892     269   49623   49567    56.6    0.00   845.1  6948.8    5.14  6943.7  6942.7    0.95    0.00    23.6   209.8    5.38   204.5   204.4    0.09
 2004 238   321       0    6049   49889     268   49621   49566    55.3    0.00   845.0  6948.7    5.11  6943.6  6942.6    0.92    0.00    23.6   209.8    5.38   204.5   204.4    0.09
 2004 239   322       0    6049   49886     266   49620   49566    54.0    0.00   845.0  6948.5    5.07  6943.4  6942.5    0.89    0.00    23.6   209.9    5.38   204.5   204.4    0.09
 2004 240   323       0    6049   49883     265   49618   49565    52.8    0.00   845.0  6948.3    5.04  6943.3  6942.4    0.86    0.00    23.6   209.9    5.38   204.5   204.4    0.08
 2004 241   324       0    6049   49880     264   49616   49565    51.7    0.00   845.0  6948.2    5.01  6943.2  6942.3    0.83    0.00    23.6   209.9    5.38   204.5   204.4    0.08
 2004 242   325       0    6049   49877     263   49615   49564    50.6    0.00   845.0  6948.0    4.98  6943.0  6942.2    0.80    0.00    23.6   209.9    5.37   204.5   204.4    0.08
 2004 243   326       0    6049   49877     261   49616   49563    52.5    0.00   845.0  6947.9    4.94  6942.9  6942.1    0.83    0.00    23.6   209.9    5.37   204.5   204.4    0.08
 2004 244   327       0    6049   49877     260   49617   49563    54.6    0.00   845.0  6947.8    4.91  6942.9  6942.0    0.86    0.00    23.6   209.9    5.37   204.5   204.4    0.09
 2004 245   328       0    6049   49877     258   49619   49562    56.6    0.00   845.0  6947.6    4.87  6942.8  6941.9    0.88    0.00    23.6   209.9    5.37   204.5   204.5    0.09
 2004 246   329       0    6049   49877     257   49620   49562    58.5    0.00   845.0  6947.5    4.84  6942.7  6941.8    0.90    0.00    23.6   209.9    5.37   204.6   204.5    0.09
 2004 247   330       0    6049   49878     256   49622   49561    60.6    0.00   844.9  6947.4    4.81  6942.6  6941.7    0.93    0.00    23.6   209.9    5.37   204.6   204.5    0.09
 2004 248   331       0    6049   49878     255   49623   49561    62.6    0.00   844.9  6947.3    4.78  6942.5  6941.6    0.95    0.00    23.6   210.0    5.37   204.6   204.5    0.10
 2004 249   332       0    6049   49878     254   49625   49560    64.7    0.00   844.9  6947.2    4.75  6942.5  6941.5    0.97    0.00    23.6   210.0    5.37   204.6   204.5    0.10
 2004 250   333       0    6049   49875     252   49623   49560    63.0    0.00   844.9  6947.1    4.72  6942.3  6941.4    0.94    0.00    23.6   210.0    5.37   204.6   204.5    0.10
 2004 251   334       0    6049   49872     251   49621   49559    61.4    0.00   844.9  6946.9    4.69  6942.2  6941.3    0.91    0.00    23.6   210.0    5.37   204.6   204.5    0.10
 2004 252   335       0    6049   49872     250   49622   49559    63.6    0.00   844.9  6946.8    4.66  6942.1  6941.2    0.93    0.00    23.6   210.0    5.37   204.6   204.5    0.10
 2004 253   336       0    6049   49873     248   49624   49558    65.9    0.00   844.9  6946.7    4.63  6942.0  6941.1    0.95    0.00    23.6   210.0    5.37   204.7   204.6    0.10
 2004 254   337       0    6049   49873     247   49626   49558    68.4    0.00   844.9  6946.6    4.59  6942.0  6941.0    0.98    0.00    23.6   210.0    5.37   204.7   204.6    0.10
 2004 255   338       0    6049   49875     246   49629   49558    71.1    0.00   844.9  6946.5    4.56  6941.9  6940.9    1.00    0.00    23.6   210.1    5.36   204.7   204.6    0.11
 2004 256   339       0    6049   49875     245   49630   49557    73.3    0.00   844.9  6946.4    4.54  6941.8  6940.8    1.02    0.00    23.6   210.1    5.36   204.7   204.6    0.11
 2004 257   340       0    6050   49876     244   49632   49557    75.4    0.00   844.9  6946.3    4.51  6941.8  6940.7    1.04    0.00    23.6   210.1    5.36   204.7   204.6    0.11
 2004 258   341       0    6050   49877     243   49634   49556    77.6    0.00   844.8  6946.2    4.49  6941.7  6940.6    1.06    0.00    23.6   210.1    5.36   204.7   204.6    0.11
 2004 259   342       0    6050   49878     242   49636   49556    79.8    0.00   844.8  6946.1    4.46  6941.6  6940.6    1.09    0.00    23.6   210.1    5.36   204.8   204.6    0.12
 2004 260   343       0    6050   49879     241   49638   49556    82.5    0.00   844.8  6946.0    4.43  6941.6  6940.5    1.11    0.00    23.6   210.1    5.36   204.8   204.7    0.12
 2004 261   344       0    6050   49876     240   49636   49556    80.4    0.00   844.8  6945.9    4.41  6941.5  6940.4    1.08    0.00    23.6   210.2    5.36   204.8   204.7    0.12
 2004 262   345       0    6050   49872     239   49634   49555    78.2    0.00   844.8  6945.8    4.38  6941.4  6940.3    1.04    0.00    23.6   210.2    5.36   204.8   204.7    0.12
 2004 263   346       0    6050   49869     238   49632   49555    76.5    0.00   844.8  6945.6    4.35  6941.3  6940.3    1.01    0.00    23.6   210.2    5.36   204.8   204.7    0.11
 2004 264   347       0    6050   49866     237   49629   49555    74.4    0.00   844.8  6945.5    4.34  6941.1  6940.2    0.97    0.00    23.6   210.2    5.36   204.8   204.7    0.11
 2004 265   348       0    6050   49867     236   49631   49554    77.0    0.00   844.8  6945.4    4.31  6941.1  6940.1    0.99    0.00    23.6   210.2    5.36   204.8   204.7    0.12
 2004 266   349       0    6050   49868     235   49633   49554    79.5    0.00   844.8  6945.3    4.29  6941.0  6940.0    1.02    0.00    23.6   210.2    5.36   204.9   204.7    0.12
 2004 267   350       0    6050   49869     233   49635   49553    82.0    0.00   844.8  6945.2    4.27  6940.9  6939.9    1.04    0.00    23.6   210.2    5.36   204.9   204.8    0.12
 2004 268   351       0    6050   49865     232   49633   49553    79.8    0.00   844.8  6945.0    4.24  6940.8  6939.8    1.00    0.00    23.6   210.3    5.36   204.9   204.8    0.12
 2004 269   352       0    6050   49862     231   49631   49553    78.0    0.00   844.8  6944.9    4.21  6940.7  6939.7    0.97    0.00    23.6   210.3    5.36   204.9   204.8    0.12
 2004 270   353       0    6050   49859     230   49629   49552    76.6    0.00   844.8  6944.7    4.18  6940.6  6939.6    0.95    0.00    23.6   210.3    5.36   204.9   204.8    0.12
 2004 271   354       0    6050   49856     229   49627   49552    74.9    0.00   844.7  6944.6    4.17  6940.4  6939.5    0.92    0.00    23.6   210.3    5.36   204.9   204.8    0.12
 2004 272   355       0    6050   49853     228   49625   49551    73.3    0.00   844.7  6944.5    4.14  6940.3  6939.4    0.90    0.00    23.6   210.3    5.36   204.9   204.8    0.11
 2004 273   356       0    6050   49850     227   49623   49551    72.1    0.00   844.7  6944.3    4.11  6940.2  6939.3    0.88    0.00    23.6   210.3    5.36   205.0   204.8    0.11
 2004 274   357       0    6050   49847     226   49621   49550    70.7    0.00   844.7  6944.2    4.09  6940.1  6939.2    0.86    0.00    23.6   210.3    5.36   205.0   204.9    0.11
 2004 275   358       0    6050   49844     225   49619   49550    69.5    0.00   844.7  6944.0    4.07  6940.0  6939.1    0.84    0.00    23.6   210.3    5.36   205.0   204.9    0.11
 2004 276   359       0    6050   49842     223   49618   49550    68.6    0.00   844.7  6943.9    4.04  6939.9  6939.1    0.82    0.00    23.6   210.4    5.36   205.0   204.9    0.11
 2004 277   360       0    6050   49840     223   49617   49549    67.9    0.00   844.7  6943.8    4.01  6939.8  6939.0    0.81    0.00    23.6   210.4    5.36   205.0   204.9    0.11
 2004 278   361       0    6050   49838     222   49616   49549    67.3    0.00   844.7  6943.7    4.00  6939.7  6938.9    0.80    0.00    23.6   210.4    5.36   205.0   204.9    0.11
 2004 279   362       0    6050   49836     222   49615   49548    66.7    0.00   844.7  6943.6    3.99  6939.6  6938.8    0.79    0.00    23.6   210.4    5.36   205.0   204.9    0.11
 2004 280   363       0    6050   49835     221   49614   49548    66.2    0.00   844.7  6943.5    3.98  6939.6  6938.8    0.79    0.00    23.6   210.4    5.36   205.0   204.9    0.11
 2004 281   364       0    6050   49834     221   49613   49547    65.8    0.00   844.7  6943.4    3.96  6939.5  6938.7    0.78    0.00    23.6   210.4    5.36   205.0   204.9    0.11
 2004 282   365       0    6050   49832     220   49612   49547    65.4    0.00   844.7  6943.4    3.95  6939.4  6938.6    0.77    0.00    23.6   210.4    5.36   205.0   204.9    0.11
 2004 283   366       0    6050   49831     220   49611   49546    65.0    0.00   844.7  6943.3    3.94  6939.3  6938.6    0.77    0.00    23.6   210.4    5.36   205.0   204.9    0.11
 2004 284   367       0    6050   49830     219   49611   49546    64.7    0.00   844.7  6943.2    3.94  6939.3  6938.5    0.76    0.00    23.6   210.4    5.36   205.0   204.9    0.11
 2004 285   368       0    6050   49829     219   49610   49545    64.4    0.00   844.7  6943.2    3.93  6939.2  6938.5    0.76    0.00    23.6   210.4    5.36   205.1   204.9    0.11
 2004 286   369       0    6050   49827     218   49609   49545    63.9    0.00   844.7  6943.1    3.94  6939.1  6938.4    0.75    0.00    23.6   210.4    5.36   205.1   205.0    0.11
 2004 287   370       0    6050   49826     218   49608   49545    63.6    0.00   844.7  6943.0    3.90  6939.1  6938.3    0.75    0.00    23.6   210.4    5.36   205.1   205.0    0.11
 2004 288   371       0    6050   49825     217   49608   49544    63.3    0.00   844.7  6942.9    3.89  6939.0  6938.3    0.74    0.00    23.6   210.4    5.36   205.1   205.0    0.11
 2004 289   372       0    6050   49824     217   49607   49544    63.0    0.00   844.7  6942.8    3.88  6939.0  6938.2    0.74    0.00    23.6   210.4    5.36   205.1   205.0    0.11
 2004 290   373       0    6050   49823     216   49606   49544    62.8    0.00   844.7  6942.8    3.87  6938.9  6938.2    0.73    0.00    23.6   210.5    5.36   205.1   205.0    0.10
 2004 291   374       0    6050   49822     216   49606   49543    62.6    0.00   844.7  6942.7    3.86  6938.8  6938.1    0.73    0.00    23.6   210.5    5.36   205.1   205.0    0.10
 2004 292   375       0    6050   49821     216   49605   49543    62.4    0.00   844.7  6942.7    3.86  6938.8  6938.1    0.73    0.00    23.6   210.5    5.36   205.1   205.0    0.10
 2004 293   376       0    6050   49820     215   49605   49542    62.3    0.00   844.7  6942.6    3.85  6938.7  6938.0    0.73    0.00    23.6   210.5    5.36   205.1   205.0    0.10
 2004 294   377       0    6050   49820     215   49604   49542    62.1    0.00   844.6  6942.5    3.85  6938.7  6938.0    0.72    0.00    23.6   210.5    5.36   205.1   205.0    0.10
