*SOM N DAILY OUTPUT FILE

*DSSAT Cropping System Model Ver. 4.5.1.023 -Stub         NOV 07, 2014; 01:44:25
                                                                                
*RUN   1        : N0 P0                     MZCER045 GHWA0401    1              
 MODEL          : MZCER045 - Maize                                              
 EXPERIMENT     : GHWA0401 MZ ON-STATION NXP (EXPERIMENT NO.2) 9 TRT            
 DATA PATH      :                                                               
 TREATMENT  1   : N0 P0                     MZCER045                            
  
!                                                                                                                                                                                                                                                                                                                                                                                                                                                Cumul.
!               <---- SOM N in top layers ----> <---------------- Total Soil Organic Nitrogen ----------------> <-------- Active Soil Organic Nitrogen (SOM1) --------> <---- Intermediate Soil Organic N (SOM2) -----> <------- Passive Soil Organic N (SOM3) -------> <----------------- Litter Nitrogen -------------------> <------------- Metabolic Litter Nitrogen -------------> <------------ Structural Litter Nitrogen ------------->  Res. N
!               20cm-kg  20cm-% 40cm-kg  40cm-%   Total Surface    Soil     0-5    5-15   15-20   20-30   30-90 Surface    Soil     0-5    5-15   15-20   20-30   30-90    Soil     0-5    5-15   15-20   20-30   30-90    Soil     0-5    5-15   15-20   20-30   30-90 Surface    Soil     0-5    5-15   15-20   20-30   30-90 Surface    Soil     0-5    5-15   15-20   20-30   30-90 Surface    Soil     0-5    5-15   15-20   20-30   30-90 (kg/ha)
@YEAR DOY   DAS  SNS20D  SN%20D  SNS40D  SN%40D    SOND    SN0D    SNTD    SN1D    SN2D    SN3D    SN4D   SN5+D   S1N0D   S1NTD   S1N1D   S1N2D   S1N3D   S1N4D  S1N5+D   S2NTD   S2N1D   S2N2D   S2N3D   S2N4D  S2N5+D   S3NTD   S3N1D   S3N2D   S3N3D   S3N4D  S3N5+D    LN0D    LNTD    LN1D    LN2D    LN3D    LN4D   LN5+D   MEN0D   MENTD   MEN1D   MEN2D   MEN3D   MEN4D  MEN5+D   STN0D   STNTD   STN1D   STN2D   STN3D   STN4D  STN5+D   RESNC
 2003 282     0    1952   0.063    1543   0.049    6985      17    6968     521     955     477     772    4243       0       6       0       1       0       1       4      72       4       8       4       8      48    6888     516     946     473     763    4191   16.63    1.35    0.22    0.34    0.13    0.21    0.44   15.55    1.23    0.20    0.31    0.12    0.19    0.40    1.08    0.12    0.02    0.03    0.01    0.02    0.04       0
 2003 283     1    1953   0.063    1543   0.049    6984      16    6968     521     955     477     772    4243       1       6       0       1       0       1       4      72       4       8       4       8      48    6888     516     946     473     763    4191   15.65    1.26    0.21    0.32    0.12    0.20    0.41   14.57    1.14    0.19    0.29    0.11    0.18    0.37    1.08    0.12    0.02    0.03    0.01    0.02    0.04       0
 2003 284     2    1954   0.063    1543   0.049    6984      16    6968     521     955     477     772    4243       2       7       0       1       0       1       4      72       4       8       4       8      48    6888     516     946     473     763    4191   14.83    1.17    0.19    0.30    0.12    0.18    0.38   13.76    1.06    0.17    0.27    0.10    0.16    0.35    1.07    0.12    0.02    0.03    0.01    0.02    0.04       0
 2003 285     3    1954   0.063    1543   0.049    6984      16    6968     521     955     477     772    4243       2       7       0       1       0       1       4      72       4       8       4       8      48    6888     516     946     473     763    4191   14.06    1.10    0.18    0.28    0.11    0.17    0.36   12.99    0.98    0.16    0.25    0.10    0.15    0.32    1.07    0.12    0.02    0.03    0.01    0.02    0.04       0
 2003 286     4    1955   0.063    1543   0.049    6984      16    6967     521     955     477     772    4243       3       7       0       1       0       1       4      72       4       8       4       8      48    6888     516     946     473     763    4191   13.27    1.02    0.17    0.26    0.10    0.16    0.34   12.20    0.90    0.15    0.23    0.09    0.14    0.30    1.07    0.12    0.02    0.03    0.01    0.02    0.04       0
 2003 287     5    1956   0.063    1543   0.049    6983      16    6967     521     955     477     772    4243       3       7       0       1       0       1       4      72       4       8       4       8      48    6888     516     946     473     763    4191   12.46    0.95    0.16    0.24    0.09    0.15    0.32   11.40    0.84    0.14    0.21    0.08    0.13    0.28    1.06    0.11    0.02    0.03    0.01    0.02    0.04       0
 2003 288     6    1956   0.064    1543   0.049    6983      16    6967     521     955     477     772    4243       4       7       0       1       0       1       4      72       4       8       4       8      48    6888     516     946     473     762    4191   11.80    0.89    0.15    0.22    0.09    0.14    0.30   10.74    0.77    0.13    0.19    0.08    0.12    0.26    1.06    0.11    0.02    0.03    0.01    0.02    0.04       0
 2003 289     7    1957   0.064    1543   0.049    6983      16    6967     521     955     477     772    4243       4       7       0       1       0       1       4      72       4       8       4       8      48    6888     516     946     473     762    4190   11.23    0.84    0.14    0.21    0.08    0.13    0.28   10.17    0.72    0.12    0.18    0.07    0.11    0.25    1.06    0.11    0.02    0.03    0.01    0.02    0.04       0
 2003 290     8    1957   0.064    1543   0.049    6982      15    6967     521     955     477     772    4243       5       7       0       1       0       1       4      72       4       8       4       8      48    6888     516     946     473     762    4190   10.71    0.79    0.13    0.20    0.08    0.12    0.27    9.66    0.68    0.11    0.17    0.07    0.10    0.23    1.05    0.11    0.02    0.03    0.01    0.02    0.04       0
 2003 291     9    1957   0.064    1543   0.049    6982      15    6967     521     955     477     772    4243       5       7       0       1       0       1       4      72       4       8       4       8      48    6888     516     946     473     762    4190   10.25    0.75    0.12    0.19    0.07    0.11    0.25    9.20    0.64    0.10    0.16    0.06    0.10    0.22    1.05    0.11    0.02    0.03    0.01    0.02    0.04       0
 2003 292    10    1958   0.064    1543   0.049    6982      15    6967     521     955     477     772    4242       5       7       0       1       0       1       4      72       4       8       4       8      48    6887     516     946     473     762    4190    9.75    0.71    0.12    0.17    0.07    0.11    0.24    8.70    0.60    0.10    0.15    0.06    0.09    0.20    1.05    0.11    0.02    0.03    0.01    0.02    0.04       0
 2003 293    11    1958   0.064    1543   0.049    6981      15    6966     521     954     477     771    4242       6       7       0       1       0       1       4      72       4       8       4       8      48    6887     516     946     473     762    4190    9.31    0.67    0.11    0.16    0.07    0.10    0.23    8.27    0.56    0.09    0.14    0.05    0.08    0.19    1.05    0.11    0.02    0.03    0.01    0.02    0.04       0
 2003 294    12    1958   0.064    1543   0.049    6981      15    6966     521     954     477     771    4242       6       7       0       1       0       1       4      72       4       8       4       8      48    6887     516     946     473     762    4190    8.97    0.63    0.10    0.16    0.06    0.10    0.21    7.92    0.52    0.09    0.13    0.05    0.08    0.18    1.04    0.11    0.02    0.03    0.01    0.02    0.04       0
 2003 295    13    1958   0.064    1543   0.049    6981      15    6966     521     954     477     771    4242       6       7       0       1       0       1       4      72       4       8       4       8      48    6887     516     946     473     762    4190    8.69    0.60    0.10    0.15    0.06    0.09    0.20    7.64    0.49    0.08    0.12    0.05    0.07    0.16    1.04    0.11    0.02    0.03    0.01    0.02    0.04       0
 2003 296    14    1958   0.064    1543   0.049    6980      15    6966     521     954     477     771    4242       6       7       0       1       0       1       4      72       4       8       4       8      48    6887     516     946     473     762    4190    8.44    0.56    0.10    0.14    0.05    0.08    0.19    7.40    0.45    0.08    0.11    0.04    0.07    0.15    1.04    0.11    0.02    0.03    0.01    0.02    0.04       0
 2003 297    15    1959   0.064    1543   0.049    6980      14    6966     521     954     477     771    4242       6       6       0       1       0       1       4      72       4       8       4       8      48    6887     516     946     473     762    4190    7.98    0.53    0.09    0.13    0.05    0.08    0.18    6.95    0.42    0.07    0.10    0.04    0.06    0.14    1.04    0.11    0.02    0.03    0.01    0.02    0.04       0
 2003 298    16    1959   0.064    1543   0.049    6980      14    6965     521     954     477     771    4242       7       6       0       1       0       1       4      72       4       8       4       8      48    6887     516     946     473     762    4190    7.52    0.50    0.09    0.12    0.05    0.07    0.17    6.49    0.39    0.07    0.09    0.04    0.06    0.13    1.03    0.11    0.02    0.03    0.01    0.02    0.04       0
 2003 299    17    1959   0.064    1543   0.049    6979      14    6965     521     954     477     771    4242       7       6       0       1       0       1       4      72       4       8       4       8      48    6887     516     946     473     762    4190    7.13    0.47    0.08    0.11    0.04    0.07    0.16    6.11    0.36    0.06    0.09    0.03    0.05    0.12    1.03    0.11    0.02    0.03    0.01    0.02    0.04       0
 2003 300    18    1959   0.064    1543   0.049    6979      14    6965     521     954     477     771    4242       7       6       0       1       0       1       4      72       4       8       4       8      48    6887     516     946     473     762    4190    6.82    0.44    0.08    0.11    0.04    0.07    0.15    5.79    0.33    0.06    0.08    0.03    0.05    0.11    1.03    0.11    0.02    0.03    0.01    0.02    0.04       0
 2003 301    19    1959   0.064    1543   0.049    6979      14    6965     521     954     477     771    4241       7       6       0       1       0       1       4      72       4       8       4       8      48    6886     516     946     473     762    4190    6.56    0.42    0.07    0.10    0.04    0.06    0.14    5.54    0.31    0.05    0.07    0.03    0.05    0.11    1.02    0.11    0.02    0.03    0.01    0.02    0.04       0
 2003 302    20    1959   0.064    1543   0.049    6978      14    6965     521     954     477     771    4241       7       6       0       1       0       1       4      72       4       8       4       8      48    6886     516     946     473     762    4190    6.35    0.40    0.07    0.10    0.04    0.06    0.13    5.33    0.29    0.05    0.07    0.03    0.04    0.10    1.02    0.11    0.02    0.03    0.01    0.02    0.04       0
 2003 303    21    1959   0.064    1542   0.049    6978      13    6965     521     954     477     771    4241       7       6       0       1       0       1       4      72       4       8       4       8      48    6886     516     946     473     762    4190    6.17    0.38    0.07    0.09    0.03    0.06    0.13    5.15    0.27    0.05    0.06    0.02    0.04    0.09    1.02    0.11    0.02    0.03    0.01    0.02    0.04       0
 2003 304    22    1959   0.064    1542   0.049    6978      13    6965     521     954     477     771    4241       8       6       0       1       0       1       4      72       4       8       4       8      47    6886     516     946     473     762    4189    5.85    0.36    0.06    0.09    0.03    0.05    0.12    4.83    0.25    0.05    0.06    0.02    0.04    0.09    1.02    0.11    0.02    0.03    0.01    0.02    0.03       0
 2003 305    23    1959   0.064    1542   0.049    6978      13    6964     521     954     477     771    4241       8       6       0       1       0       1       4      72       4       8       4       8      47    6886     516     946     473     762    4189    5.58    0.34    0.06    0.08    0.03    0.05    0.12    4.57    0.23    0.04    0.05    0.02    0.03    0.08    1.01    0.11    0.02    0.03    0.01    0.02    0.03       0
 2003 306    24    1960   0.064    1542   0.049    6977      13    6964     521     954     477     771    4241       8       6       0       1       0       1       4      72       5       8       4       8      47    6886     516     946     473     762    4189    5.35    0.33    0.06    0.08    0.03    0.05    0.11    4.34    0.22    0.04    0.05    0.02    0.03    0.08    1.01    0.11    0.02    0.03    0.01    0.02    0.03       0
 2003 307    25    1960   0.064    1542   0.049    6977      13    6964     521     954     477     771    4241       8       6       0       1       0       1       4      72       5       8       4       8      47    6886     516     946     473     762    4189    5.16    0.31    0.06    0.07    0.03    0.05    0.11    4.16    0.21    0.04    0.05    0.02    0.03    0.07    1.01    0.11    0.02    0.03    0.01    0.02    0.03       0
 2003 308    26    1960   0.064    1542   0.049    6977      13    6964     521     954     477     771    4241       8       6       0       1       0       1       4      72       5       8       4       8      47    6886     516     946     473     762    4189    5.01    0.30    0.05    0.07    0.03    0.04    0.10    4.00    0.19    0.04    0.04    0.02    0.03    0.07    1.01    0.11    0.02    0.03    0.01    0.02    0.03       0
 2003 309    27    1960   0.064    1542   0.049    6976      13    6964     521     954     477     771    4241       8       6       0       1       0       1       4      72       5       8       4       8      47    6886     516     946     473     762    4189    4.88    0.29    0.05    0.07    0.03    0.04    0.10    3.87    0.18    0.04    0.04    0.02    0.03    0.06    1.01    0.10    0.02    0.03    0.01    0.02    0.03       0
 2003 310    28    1959   0.064    1542   0.049    6976      12    6964     521     954     477     771    4241       8       6       0       1       0       1       4      72       5       8       4       8      47    6886     516     946     473     762    4189    4.77    0.28    0.05    0.06    0.02    0.04    0.09    3.76    0.17    0.03    0.04    0.01    0.02    0.06    1.00    0.10    0.02    0.03    0.01    0.02    0.03       0
 2003 311    29    1960   0.064    1542   0.049    6976      12    6964     521     954     477     771    4241       8       6       0       1       0       1       4      72       5       8       4       8      47    6885     516     946     473     762    4189    4.56    0.26    0.05    0.06    0.02    0.04    0.09    3.56    0.16    0.03    0.04    0.01    0.02    0.06    1.00    0.10    0.02    0.03    0.01    0.02    0.03       0
 2003 312    30    1960   0.064    1542   0.049    6976      12    6963     521     954     477     771    4240       8       6       0       1       0       1       4      72       5       8       4       8      47    6885     516     946     473     762    4189    4.37    0.25    0.05    0.06    0.02    0.04    0.09    3.38    0.15    0.03    0.03    0.01    0.02    0.05    1.00    0.10    0.02    0.03    0.01    0.02    0.03       0
 2003 313    31    1960   0.064    1542   0.049    6975      12    6963     521     954     477     771    4240       8       6       0       1       0       1       4      72       5       8       4       8      47    6885     516     946     473     762    4189    4.17    0.24    0.04    0.06    0.02    0.04    0.08    3.18    0.14    0.03    0.03    0.01    0.02    0.05    0.99    0.10    0.02    0.03    0.01    0.02    0.03       0
 2003 314    32    1960   0.064    1542   0.049    6975      12    6963     521     954     477     771    4240       8       6       0       1       0       1       4      72       5       8       4       8      47    6885     516     945     473     762    4189    4.00    0.23    0.04    0.05    0.02    0.03    0.08    3.01    0.13    0.03    0.03    0.01    0.02    0.05    0.99    0.10    0.02    0.03    0.01    0.02    0.03       0
 2003 315    33    1959   0.064    1542   0.049    6975      12    6963     521     954     477     771    4240       8       6       0       1       0       1       4      72       5       8       4       8      47    6885     516     945     473     762    4189    3.87    0.22    0.04    0.05    0.02    0.03    0.08    2.88    0.12    0.02    0.03    0.01    0.02    0.04    0.99    0.10    0.02    0.03    0.01    0.02    0.03       0
 2003 316    34    1959   0.064    1542   0.049    6974      12    6963     521     954     477     771    4240       8       6       0       1       0       1       4      72       5       8       4       8      47    6885     516     945     473     762    4189    3.76    0.21    0.04    0.05    0.02    0.03    0.07    2.77    0.11    0.02    0.02    0.01    0.02    0.04    0.99    0.10    0.02    0.03    0.01    0.02    0.03       0
 2003 317    35    1959   0.064    1542   0.049    6974      11    6963     521     954     477     771    4240       8       6       0       1       0       1       4      72       5       8       4       8      47    6885     516     945     473     762    4189    3.66    0.21    0.04    0.05    0.02    0.03    0.07    2.67    0.11    0.02    0.02    0.01    0.01    0.04    0.99    0.10    0.02    0.03    0.01    0.02    0.03       0
 2003 318    36    1959   0.064    1542   0.049    6974      11    6962     521     954     477     771    4240       8       6       0       1       0       1       4      72       5       8       4       8      47    6885     516     945     473     762    4189    3.58    0.20    0.04    0.05    0.02    0.03    0.07    2.59    0.10    0.02    0.02    0.01    0.01    0.04    0.98    0.10    0.02    0.03    0.01    0.02    0.03       0
 2003 319    37    1959   0.064    1542   0.049    6974      11    6962     521     954     477     771    4240       8       6       0       1       0       1       4      72       5       8       4       8      47    6885     516     945     473     762    4189    3.50    0.19    0.04    0.05    0.02    0.03    0.07    2.52    0.09    0.02    0.02    0.01    0.01    0.03    0.98    0.10    0.02    0.03    0.01    0.02    0.03       0
 2003 320    38    1959   0.064    1542   0.049    6973      11    6962     521     954     477     771    4240       8       6       0       1       0       1       4      72       5       8       4       8      47    6884     516     945     473     762    4189    3.44    0.19    0.04    0.04    0.02    0.03    0.06    2.46    0.09    0.02    0.02    0.01    0.01    0.03    0.98    0.10    0.02    0.03    0.01    0.02    0.03       0
 2003 321    39    1959   0.064    1542   0.049    6973      11    6962     521     954     477     771    4240       8       6       0       1       0       1       4      72       5       8       4       8      47    6884     516     945     473     762    4188    3.39    0.18    0.04    0.04    0.02    0.03    0.06    2.41    0.08    0.02    0.02    0.01    0.01    0.03    0.98    0.10    0.02    0.03    0.01    0.02    0.03       0
 2003 322    40    1959   0.064    1542   0.049    6973      11    6962     521     954     477     771    4239       8       6       0       1       0       1       4      72       5       8       4       8      47    6884     516     945     473     762    4188    3.35    0.18    0.04    0.04    0.02    0.02    0.06    2.38    0.08    0.02    0.02    0.01    0.01    0.03    0.98    0.10    0.02    0.02    0.01    0.02    0.03       0
 2003 323    41    1959   0.064    1542   0.049    6973      11    6962     521     954     477     771    4239       8       6       0       1       0       1       4      72       5       8       4       8      47    6884     516     945     473     762    4188    3.32    0.17    0.04    0.04    0.01    0.02    0.06    2.34    0.07    0.02    0.01    0.01    0.01    0.02    0.98    0.10    0.02    0.02    0.01    0.02    0.03       0
 2003 324    42    1959   0.064    1542   0.049    6972      11    6961     521     954     477     771    4239       8       6       0       1       0       1       4      72       5       8       4       8      47    6884     516     945     473     762    4188    3.30    0.17    0.04    0.04    0.01    0.02    0.05    2.32    0.07    0.02    0.01    0.00    0.01    0.02    0.98    0.10    0.02    0.02    0.01    0.02    0.03       0
 2003 325    43    1959   0.064    1542   0.049    6972      11    6961     521     954     477     771    4239       8       6       0       1       0       1       4      72       5       8       4       8      47    6884     516     945     473     762    4188    3.28    0.16    0.03    0.04    0.01    0.02    0.05    2.30    0.06    0.02    0.01    0.00    0.01    0.02    0.98    0.10    0.02    0.02    0.01    0.02    0.03       0
 2003 326    44    1959   0.064    1541   0.049    6972      11    6961     521     954     477     771    4239       8       5       0       1       0       1       4      72       5       8       4       8      47    6884     516     945     473     762    4188    3.27    0.16    0.03    0.04    0.01    0.02    0.05    2.29    0.06    0.02    0.01    0.00    0.01    0.02    0.98    0.10    0.02    0.02    0.01    0.02    0.03       0
 2003 327    45    1959   0.064    1541   0.049    6972      11    6961     521     954     477     771    4239       8       5       0       1       0       1       4      72       5       8       4       8      47    6884     516     945     473     762    4188    3.26    0.15    0.03    0.04    0.01    0.02    0.05    2.28    0.06    0.02    0.01    0.00    0.01    0.02    0.98    0.10    0.02    0.02    0.01    0.02    0.03       0
 2003 328    46    1959   0.064    1541   0.049    6972      11    6961     521     954     477     771    4239       8       5       0       1       0       1       4      72       5       8       4       8      47    6884     516     945     473     762    4188    3.26    0.15    0.03    0.03    0.01    0.02    0.05    2.28    0.05    0.02    0.01    0.00    0.01    0.02    0.98    0.10    0.02    0.02    0.01    0.01    0.03       0
 2003 329    47    1959   0.064    1541   0.049    6972      11    6961     521     953     477     771    4239       8       5       0       1       0       1       4      72       5       8       4       8      47    6884     516     945     473     762    4188    3.25    0.15    0.03    0.03    0.01    0.02    0.05    2.27    0.05    0.02    0.01    0.00    0.01    0.02    0.98    0.10    0.02    0.02    0.01    0.01    0.03       0
 2003 330    48    1959   0.064    1541   0.049    6971      11    6960     521     953     477     771    4239       8       5       0       1       0       1       4      72       5       8       4       8      47    6883     516     945     473     762    4188    3.25    0.14    0.03    0.03    0.01    0.02    0.05    2.27    0.05    0.02    0.01    0.00    0.00    0.01    0.98    0.10    0.02    0.02    0.01    0.01    0.03       0
 2003 331    49    1959   0.064    1541   0.049    6971      11    6960     521     953     477     771    4238       8       5       0       1       0       1       4      72       5       8       4       8      47    6883     516     945     473     762    4188    3.24    0.14    0.03    0.03    0.01    0.02    0.04    2.26    0.05    0.02    0.01    0.00    0.00    0.01    0.98    0.10    0.02    0.02    0.01    0.01    0.03       0
 2003 332    50    1959   0.064    1541   0.049    6971      11    6960     521     953     477     771    4238       8       5       0       1       0       1       4      72       5       8       4       8      47    6883     516     945     473     762    4188    3.23    0.14    0.03    0.03    0.01    0.02    0.04    2.26    0.04    0.02    0.01    0.00    0.00    0.01    0.98    0.10    0.02    0.02    0.01    0.01    0.03       0
 2003 333    51    1959   0.064    1541   0.049    6971      11    6960     521     953     477     771    4238       8       5       0       1       0       1       4      71       5       8       4       8      47    6883     516     945     473     762    4188    3.23    0.14    0.03    0.03    0.01    0.02    0.04    2.25    0.04    0.02    0.01    0.00    0.00    0.01    0.98    0.09    0.02    0.02    0.01    0.01    0.03       0
 2003 334    52    1959   0.064    1541   0.049    6971      11    6960     521     953     477     770    4238       8       5       0       1       0       1       4      71       5       8       4       8      47    6883     516     945     473     762    4188    3.22    0.14    0.03    0.03    0.01    0.02    0.04    2.25    0.04    0.02    0.01    0.00    0.00    0.01    0.98    0.09    0.02    0.02    0.01    0.01    0.03       0
 2003 335    53    1959   0.064    1541   0.049    6971      11    6960     521     953     477     770    4238       8       5       0       1       0       1       4      71       5       8       4       8      47    6883     516     945     473     762    4187    3.22    0.13    0.03    0.03    0.01    0.02    0.04    2.24    0.04    0.02    0.01    0.00    0.00    0.01    0.98    0.09    0.02    0.02    0.01    0.01    0.03       0
 2003 336    54    1959   0.064    1541   0.049    6970      11    6959     521     953     477     770    4238       8       5       0       1       0       1       3      71       5       8       4       8      47    6883     516     945     473     762    4187    3.21    0.13    0.03    0.03    0.01    0.02    0.04    2.24    0.04    0.02    0.01    0.00    0.00    0.01    0.98    0.09    0.02    0.02    0.01    0.01    0.03       0
 2003 337    55    1959   0.064    1541   0.049    6970      11    6959     521     953     477     770    4238       8       5       0       1       0       0       3      71       5       8       4       8      47    6883     516     945     473     762    4187    3.21    0.13    0.03    0.03    0.01    0.02    0.04    2.23    0.04    0.02    0.01    0.00    0.00    0.01    0.98    0.09    0.02    0.02    0.01    0.01    0.03       0
 2003 338    56    1959   0.064    1541   0.049    6970      11    6959     521     953     477     770    4238       8       5       0       1       0       0       3      71       5       8       4       8      47    6883     516     945     473     762    4187    3.20    0.13    0.03    0.03    0.01    0.02    0.04    2.23    0.03    0.02    0.01    0.00    0.00    0.01    0.98    0.09    0.02    0.02    0.01    0.01    0.03       0
 2003 339    57    1958   0.064    1541   0.049    6970      11    6959     521     953     477     770    4238       8       5       0       1       0       0       3      71       5       8       4       8      47    6882     516     945     473     762    4187    3.20    0.13    0.03    0.03    0.01    0.02    0.04    2.22    0.03    0.02    0.01    0.00    0.00    0.01    0.98    0.09    0.02    0.02    0.01    0.01    0.03       0
 2003 340    58    1958   0.064    1541   0.049    6970      11    6959     521     953     477     770    4238       8       5       0       1       0       0       3      71       5       8       4       8      47    6882     516     945     473     762    4187    3.19    0.12    0.03    0.03    0.01    0.02    0.04    2.22    0.03    0.02    0.00    0.00    0.00    0.01    0.98    0.09    0.02    0.02    0.01    0.01    0.03       0
 2003 341    59    1958   0.064    1541   0.049    6970      11    6959     521     953     477     770    4237       8       5       0       1       0       0       3      71       5       8       4       8      47    6882     516     945     473     762    4187    3.19    0.12    0.03    0.03    0.01    0.02    0.04    2.21    0.03    0.02    0.00    0.00    0.00    0.01    0.98    0.09    0.02    0.02    0.01    0.01    0.03       0
 2003 342    60    1958   0.064    1541   0.049    6969      11    6959     521     953     477     770    4237       8       5       0       1       0       0       3      71       5       8       4       8      47    6882     516     945     472     762    4187    3.18    0.12    0.03    0.03    0.01    0.02    0.04    2.21    0.03    0.02    0.00    0.00    0.00    0.01    0.98    0.09    0.02    0.02    0.01    0.01    0.03       0
 2003 343    61    1958   0.064    1541   0.049    6969      11    6958     521     953     477     770    4237       8       5       0       1       0       0       3      71       5       8       4       8      47    6882     516     945     472     762    4187    3.18    0.12    0.03    0.03    0.01    0.02    0.03    2.20    0.03    0.02    0.00    0.00    0.00    0.01    0.98    0.09    0.02    0.02    0.01    0.01    0.03       0
 2003 344    62    1958   0.064    1541   0.049    6969      11    6958     521     953     477     770    4237       8       5       0       1       0       0       3      71       5       8       4       8      47    6882     516     945     472     762    4187    3.17    0.12    0.03    0.03    0.01    0.02    0.03    2.20    0.03    0.02    0.00    0.00    0.00    0.00    0.98    0.09    0.02    0.02    0.01    0.01    0.03       0
 2003 345    63    1958   0.064    1541   0.049    6969      11    6958     521     953     477     770    4237       8       5       0       1       0       0       3      71       5       8       4       8      47    6882     516     945     472     762    4187    3.17    0.12    0.03    0.03    0.01    0.02    0.03    2.19    0.03    0.02    0.00    0.00    0.00    0.00    0.98    0.09    0.02    0.02    0.01    0.01    0.03       0
 2003 346    64    1958   0.064    1541   0.049    6969      11    6958     521     953     477     770    4237       8       5       0       1       0       0       3      71       5       8       4       8      47    6882     516     945     472     762    4187    3.16    0.12    0.03    0.03    0.01    0.02    0.03    2.19    0.03    0.02    0.00    0.00    0.00    0.00    0.98    0.09    0.02    0.02    0.01    0.01    0.03       0
 2003 347    65    1958   0.064    1541   0.049    6969      11    6958     521     953     477     770    4237       8       5       0       1       0       0       3      71       5       8       4       8      47    6882     516     945     472     762    4187    3.16    0.12    0.03    0.03    0.01    0.01    0.03    2.18    0.03    0.02    0.00    0.00    0.00    0.00    0.97    0.09    0.02    0.02    0.01    0.01    0.03       0
 2003 348    66    1958   0.064    1540   0.049    6968      11    6958     521     953     477     770    4237       8       5       0       0       0       0       3      71       5       8       4       8      47    6882     516     945     472     762    4187    3.15    0.12    0.03    0.03    0.01    0.01    0.03    2.18    0.03    0.02    0.00    0.00    0.00    0.00    0.97    0.09    0.02    0.02    0.01    0.01    0.03       0
 2003 349    67    1958   0.064    1540   0.049    6968      11    6957     521     953     477     770    4237       8       5       0       0       0       0       3      71       5       8       4       8      47    6881     516     945     472     762    4187    3.15    0.11    0.03    0.03    0.01    0.01    0.03    2.17    0.03    0.02    0.00    0.00    0.00    0.00    0.97    0.09    0.02    0.02    0.01    0.01    0.03       0
 2003 350    68    1958   0.064    1540   0.049    6968      11    6957     521     953     477     770    4237       8       5       0       0       0       0       3      71       5       8       4       8      47    6881     516     945     472     762    4186    3.14    0.11    0.03    0.03    0.01    0.01    0.03    2.17    0.02    0.02    0.00    0.00    0.00    0.00    0.97    0.09    0.02    0.02    0.01    0.01    0.03       0
 2003 351    69    1958   0.064    1540   0.049    6968      11    6957     521     953     476     770    4236       8       5       0       0       0       0       3      71       5       8       4       8      47    6881     516     945     472     762    4186    3.14    0.11    0.03    0.03    0.01    0.01    0.03    2.16    0.02    0.02    0.00    0.00    0.00    0.00    0.97    0.09    0.02    0.02    0.01    0.01    0.03       0
 2003 352    70    1958   0.064    1540   0.049    6968      11    6957     521     953     476     770    4236       8       5       0       0       0       0       3      71       5       8       4       8      47    6881     516     945     472     762    4186    3.13    0.11    0.03    0.02    0.01    0.01    0.03    2.16    0.02    0.02    0.00    0.00    0.00    0.00    0.97    0.09    0.02    0.02    0.01    0.01    0.03       0
 2003 353    71    1958   0.064    1540   0.049    6968      11    6957     521     953     476     770    4236       8       5       0       0       0       0       3      71       5       8       4       8      47    6881     516     945     472     762    4186    3.13    0.11    0.03    0.02    0.01    0.01    0.03    2.15    0.02    0.02    0.00    0.00    0.00    0.00    0.97    0.09    0.02    0.02    0.01    0.01    0.03       0
 2003 354    72    1958   0.064    1540   0.049    6968      11    6957     521     953     476     770    4236       8       5       0       0       0       0       3      71       5       8       4       8      47    6881     516     945     472     762    4186    3.12    0.11    0.03    0.02    0.01    0.01    0.03    2.15    0.02    0.02    0.00    0.00    0.00    0.00    0.97    0.09    0.02    0.02    0.01    0.01    0.03       0
 2003 355    73    1958   0.064    1540   0.049    6967      11    6957     521     953     476     770    4236       8       5       0       0       0       0       3      71       5       8       4       8      47    6881     516     945     472     762    4186    3.12    0.11    0.03    0.02    0.01    0.01    0.03    2.15    0.02    0.02    0.00    0.00    0.00    0.00    0.97    0.09    0.02    0.02    0.01    0.01    0.03       0
 2003 356    74    1958   0.064    1540   0.049    6967      11    6956     521     953     476     770    4236       8       5       0       0       0       0       3      71       5       8       4       8      47    6881     516     945     472     762    4186    3.11    0.11    0.03    0.02    0.01    0.01    0.03    2.14    0.02    0.02    0.00    0.00    0.00    0.00    0.97    0.09    0.02    0.02    0.01    0.01    0.03       0
 2003 357    75    1958   0.064    1540   0.049    6967      11    6956     521     953     476     770    4236       8       5       0       0       0       0       3      71       5       8       4       8      47    6881     516     945     472     762    4186    3.11    0.11    0.03    0.02    0.01    0.01    0.03    2.14    0.02    0.02    0.00    0.00    0.00    0.00    0.97    0.09    0.02    0.02    0.01    0.01    0.03       0
 2003 358    76    1958   0.064    1540   0.049    6967      11    6956     521     953     476     770    4236       8       5       0       0       0       0       3      71       5       8       4       8      47    6881     516     945     472     762    4186    3.11    0.11    0.03    0.02    0.01    0.01    0.03    2.13    0.02    0.02    0.00    0.00    0.00    0.00    0.97    0.09    0.02    0.02    0.01    0.01    0.03       0
 2003 359    77    1958   0.064    1540   0.049    6967      11    6956     521     953     476     770    4236       8       5       0       0       0       0       3      71       5       8       4       8      47    6880     516     945     472     762    4186    3.10    0.11    0.03    0.02    0.01    0.01    0.03    2.13    0.02    0.02    0.00    0.00    0.00    0.00    0.97    0.09    0.02    0.02    0.01    0.01    0.03       0
 2003 360    78    1958   0.064    1540   0.049    6967      11    6956     521     953     476     770    4236       8       5       0       0       0       0       3      71       5       8       4       8      47    6880     516     945     472     762    4186    3.10    0.11    0.03    0.02    0.01    0.01    0.03    2.12    0.02    0.02    0.00    0.00    0.00    0.00    0.97    0.09    0.02    0.02    0.01    0.01    0.03       0
 2003 361    79    1958   0.064    1540   0.049    6967      11    6956     521     953     476     770    4235       8       5       0       0       0       0       3      71       5       8       4       8      47    6880     516     945     472     762    4186    3.09    0.11    0.03    0.02    0.01    0.01    0.03    2.12    0.02    0.02    0.00    0.00    0.00    0.00    0.97    0.09    0.02    0.02    0.01    0.01    0.03       0
 2003 362    80    1958   0.064    1540   0.049    6966      11    6956     521     953     476     770    4235       8       5       0       0       0       0       3      71       5       8       4       8      47    6880     516     945     472     762    4186    3.09    0.11    0.03    0.02    0.01    0.01    0.03    2.11    0.02    0.02    0.00    0.00    0.00    0.00    0.97    0.09    0.02    0.02    0.01    0.01    0.03       0
 2003 363    81    1958   0.064    1540   0.049    6966      11    6956     521     953     476     770    4235       8       5       0       0       0       0       3      71       5       8       4       8      47    6880     516     945     472     762    4186    3.08    0.11    0.03    0.02    0.01    0.01    0.03    2.11    0.02    0.02    0.00    0.00    0.00    0.00    0.97    0.09    0.02    0.02    0.01    0.01    0.03       0
 2003 364    82    1958   0.064    1540   0.049    6966      11    6955     521     953     476     770    4235       8       5       0       0       0       0       3      71       5       8       4       8      47    6880     516     945     472     762    4186    3.08    0.10    0.03    0.02    0.01    0.01    0.03    2.11    0.02    0.02    0.00    0.00    0.00    0.00    0.97    0.09    0.02    0.02    0.01    0.01    0.03       0
 2003 365    83    1958   0.064    1540   0.049    6966      11    6955     521     953     476     770    4235       8       5       0       0       0       0       3      71       5       8       4       8      47    6880     516     945     472     761    4185    3.07    0.10    0.03    0.02    0.01    0.01    0.03    2.10    0.02    0.02    0.00    0.00    0.00    0.00    0.97    0.09    0.02    0.02    0.01    0.01    0.03       0
 2004 001    84    1958   0.064    1540   0.049    6966      11    6955     521     953     476     770    4235       8       5       0       0       0       0       3      71       5       8       4       8      46    6880     516     945     472     761    4185    3.07    0.10    0.03    0.02    0.01    0.01    0.03    2.10    0.02    0.02    0.00    0.00    0.00    0.00    0.97    0.08    0.02    0.02    0.01    0.01    0.03       0
 2004 002    85    1958   0.064    1540   0.049    6966      11    6955     521     953     476     770    4235       8       5       0       0       0       0       3      71       5       8       4       8      46    6880     516     945     472     761    4185    3.07    0.10    0.03    0.02    0.01    0.01    0.03    2.09    0.02    0.02    0.00    0.00    0.00    0.00    0.97    0.08    0.02    0.02    0.01    0.01    0.03       0
 2004 003    86    1958   0.064    1540   0.049    6966      11    6955     521     953     476     770    4235       8       5       0       0       0       0       3      71       5       8       4       8      46    6880     516     945     472     761    4185    3.06    0.10    0.03    0.02    0.01    0.01    0.03    2.09    0.02    0.02    0.00    0.00    0.00    0.00    0.97    0.08    0.02    0.02    0.01    0.01    0.03       0
 2004 004    87    1958   0.064    1540   0.049    6965      11    6955     521     953     476     770    4235       8       5       0       0       0       0       3      71       5       8       4       8      46    6880     516     945     472     761    4185    3.06    0.10    0.03    0.02    0.01    0.01    0.03    2.08    0.02    0.02    0.00    0.00    0.00    0.00    0.97    0.08    0.02    0.02    0.01    0.01    0.03       0
 2004 005    88    1958   0.064    1540   0.049    6965      11    6955     521     953     476     770    4235       8       4       0       0       0       0       3      71       5       8       4       8      46    6879     516     945     472     761    4185    3.05    0.10    0.03    0.02    0.01    0.01    0.03    2.08    0.02    0.02    0.00    0.00    0.00    0.00    0.97    0.08    0.02    0.02    0.01    0.01    0.03       0
 2004 006    89    1958   0.064    1540   0.049    6965      11    6955     521     953     476     770    4235       8       4       0       0       0       0       3      71       5       8       4       8      46    6879     516     945     472     761    4185    3.05    0.10    0.03    0.02    0.01    0.01    0.03    2.07    0.02    0.02    0.00    0.00    0.00    0.00    0.97    0.08    0.02    0.02    0.01    0.01    0.03       0
 2004 007    90    1958   0.064    1540   0.049    6965      11    6954     521     953     476     770    4234       8       4       0       0       0       0       3      71       5       8       4       8      46    6879     516     945     472     761    4185    3.04    0.10    0.03    0.02    0.01    0.01    0.03    2.07    0.02    0.02    0.00    0.00    0.00    0.00    0.97    0.08    0.02    0.02    0.01    0.01    0.03       0
 2004 008    91    1958   0.064    1540   0.049    6965      11    6954     521     953     476     770    4234       8       4       0       0       0       0       3      71       5       8       4       8      46    6879     516     945     472     761    4185    3.04    0.10    0.03    0.02    0.01    0.01    0.03    2.07    0.02    0.02    0.00    0.00    0.00    0.00    0.97    0.08    0.02    0.02    0.01    0.01    0.03       0
 2004 009    92    1958   0.064    1540   0.049    6965      11    6954     521     953     476     770    4234       8       4       0       0       0       0       3      71       5       8       4       8      46    6879     516     945     472     761    4185    3.03    0.10    0.03    0.02    0.01    0.01    0.03    2.06    0.02    0.02    0.00    0.00    0.00    0.00    0.97    0.08    0.02    0.02    0.01    0.01    0.03       0
 2004 010    93    1958   0.064    1539   0.049    6965      11    6954     521     953     476     770    4234       8       4       0       0       0       0       3      70       5       8       4       8      46    6879     516     945     472     761    4185    3.03    0.10    0.03    0.02    0.01    0.01    0.03    2.06    0.02    0.02    0.00    0.00    0.00    0.00    0.97    0.08    0.02    0.02    0.01    0.01    0.03       0
 2004 011    94    1957   0.064    1539   0.049    6964      11    6954     521     953     476     770    4234       8       4       0       0       0       0       3      70       5       8       4       8      46    6879     516     945     472     761    4185    3.02    0.10    0.03    0.02    0.01    0.01    0.03    2.05    0.02    0.02    0.00    0.00    0.00    0.00    0.97    0.08    0.02    0.02    0.01    0.01    0.03       0
 2004 012    95    1957   0.064    1539   0.049    6964      11    6954     521     953     476     770    4234       8       4       0       0       0       0       3      70       5       8       4       8      46    6879     516     945     472     761    4185    3.02    0.10    0.03    0.02    0.01    0.01    0.03    2.05    0.02    0.02    0.00    0.00    0.00    0.00    0.97    0.08    0.02    0.02    0.01    0.01    0.03       0
 2004 013    96    1957   0.064    1539   0.049    6964      11    6954     521     953     476     770    4234       8       4       0       0       0       0       3      70       5       7       4       8      46    6879     516     945     472     761    4185    3.01    0.10    0.03    0.02    0.01    0.01    0.03    2.04    0.02    0.02    0.00    0.00    0.00    0.00    0.97    0.08    0.02    0.02    0.01    0.01    0.03       0
 2004 014    97    1957   0.064    1539   0.049    6964      11    6953     521     953     476     770    4234       8       4       0       0       0       0       3      70       5       7       4       8      46    6879     516     945     472     761    4185    3.01    0.10    0.03    0.02    0.01    0.01    0.03    2.04    0.02    0.02    0.00    0.00    0.00    0.00    0.97    0.08    0.02    0.02    0.01    0.01    0.02       0
 2004 015    98    1957   0.064    1539   0.049    6964      11    6953     521     953     476     770    4234       8       4       0       0       0       0       3      70       5       7       4       8      46    6878     516     945     472     761    4184    3.00    0.10    0.03    0.02    0.01    0.01    0.03    2.03    0.02    0.02    0.00    0.00    0.00    0.00    0.97    0.08    0.02    0.02    0.01    0.01    0.02       0
 2004 016    99    1957   0.064    1539   0.049    6964      11    6953     521     953     476     770    4234       8       4       0       0       0       0       3      70       5       7       4       8      46    6878     516     945     472     761    4184    3.00    0.10    0.03    0.02    0.01    0.01    0.03    2.03    0.02    0.02    0.00    0.00    0.00    0.00    0.97    0.08    0.02    0.02    0.01    0.01    0.02       0
 2004 017   100    1957   0.064    1539   0.049    6964      11    6953     521     953     476     770    4234       8       4       0       0       0       0       3      70       5       7       4       8      46    6878     516     945     472     761    4184    3.00    0.10    0.03    0.02    0.01    0.01    0.02    2.02    0.02    0.02    0.00    0.00    0.00    0.00    0.97    0.08    0.02    0.02    0.01    0.01    0.02       0
 2004 018   101    1957   0.064    1539   0.049    6964      11    6953     521     953     476     770    4233       8       4       0       0       0       0       3      70       5       7       4       8      46    6878     516     945     472     761    4184    2.99    0.10    0.03    0.02    0.01    0.01    0.02    2.02    0.02    0.02    0.00    0.00    0.00    0.00    0.97    0.08    0.02    0.02    0.01    0.01    0.02       0
 2004 019   102    1957   0.064    1539   0.049    6963      11    6953     521     953     476     770    4233       8       4       0       0       0       0       3      70       5       7       4       8      46    6878     516     945     472     761    4184    2.99    0.10    0.03    0.02    0.01    0.01    0.02    2.02    0.02    0.02    0.00    0.00    0.00    0.00    0.97    0.08    0.02    0.02    0.01    0.01    0.02       0
 2004 020   103    1957   0.064    1539   0.049    6963      11    6953     521     953     476     770    4233       8       4       0       0       0       0       3      70       5       7       4       8      46    6878     516     945     472     761    4184    2.98    0.10    0.03    0.02    0.01    0.01    0.02    2.01    0.02    0.02    0.00    0.00    0.00    0.00    0.97    0.08    0.02    0.02    0.01    0.01    0.02       0
 2004 021   104    1957   0.064    1539   0.049    6963      11    6953     521     953     476     769    4233       8       4       0       0       0       0       3      70       5       7       4       8      46    6878     516     945     472     761    4184    2.87    0.10    0.03    0.02    0.01    0.01    0.02    1.90    0.02    0.01    0.00    0.00    0.00    0.00    0.97    0.08    0.02    0.02    0.01    0.01    0.02       0
 2004 022   105    1957   0.064    1539   0.049    6963      10    6952     521     953     476     769    4233       8       4       0       0       0       0       3      70       5       7       4       8      46    6878     516     945     472     761    4184    2.74    0.09    0.03    0.02    0.01    0.01    0.02    1.77    0.01    0.01    0.00    0.00    0.00    0.00    0.96    0.08    0.02    0.02    0.01    0.01    0.02       0
 2004 023   106    1957   0.064    1539   0.049    6962      10    6952     521     953     476     769    4233       8       4       0       0       0       0       3      70       5       7       4       8      46    6878     516     945     472     761    4184    2.63    0.09    0.03    0.02    0.01    0.01    0.02    1.67    0.01    0.01    0.00    0.00    0.00    0.00    0.96    0.08    0.02    0.02    0.01    0.01    0.02       0
 2004 024   107    1957   0.064    1539   0.049    6962      10    6952     521     953     476     769    4233       7       4       0       0       0       0       3      70       5       7       4       8      46    6878     516     945     472     761    4184    2.55    0.09    0.03    0.02    0.01    0.01    0.02    1.59    0.01    0.01    0.00    0.00    0.00    0.00    0.96    0.08    0.02    0.02    0.01    0.01    0.02       0
 2004 025   108    1957   0.064    1539   0.049    6962      10    6952     521     953     476     769    4233       7       4       0       0       0       0       3      70       5       7       4       8      46    6877     516     945     472     761    4184    2.48    0.09    0.03    0.02    0.01    0.01    0.02    1.53    0.01    0.01    0.00    0.00    0.00    0.00    0.96    0.08    0.02    0.02    0.01    0.01    0.02       0
 2004 026   109    1957   0.064    1539   0.049    6962      10    6952     521     952     476     769    4233       7       4       0       0       0       0       3      70       5       7       4       8      46    6877     516     945     472     761    4184    2.43    0.09    0.03    0.02    0.01    0.01    0.02    1.47    0.01    0.01    0.00    0.00    0.00    0.00    0.95    0.08    0.02    0.02    0.01    0.01    0.02       0
 2004 027   110    1957   0.064    1539   0.049    6961      10    6952     521     952     476     769    4233       7       4       0       0       0       0       3      70       5       7       4       8      46    6877     516     945     472     761    4184    2.38    0.09    0.03    0.02    0.01    0.01    0.02    1.43    0.01    0.01    0.00    0.00    0.00    0.00    0.95    0.08    0.02    0.02    0.01    0.01    0.02       0
 2004 028   111    1957   0.064    1539   0.049    6961      10    6952     521     952     476     769    4233       7       4       0       0       0       0       3      70       5       7       4       8      46    6877     516     945     472     761    4184    2.34    0.09    0.03    0.02    0.01    0.01    0.02    1.38    0.01    0.01    0.00    0.00    0.00    0.00    0.95    0.08    0.02    0.02    0.01    0.01    0.02       0
 2004 029   112    1957   0.064    1539   0.049    6961      10    6951     521     952     476     769    4232       7       4       0       0       0       0       3      70       5       7       4       8      46    6877     516     945     472     761    4184    2.30    0.09    0.03    0.02    0.01    0.01    0.02    1.35    0.01    0.01    0.00    0.00    0.00    0.00    0.95    0.08    0.02    0.02    0.01    0.01    0.02       0
 2004 030   113    1957   0.064    1539   0.049    6961       9    6951     521     952     476     769    4232       7       4       0       0       0       0       3      70       5       7       4       8      46    6877     516     945     472     761    4183    2.27    0.09    0.02    0.02    0.01    0.01    0.02    1.32    0.01    0.01    0.00    0.00    0.00    0.00    0.95    0.08    0.02    0.02    0.01    0.01    0.02       0
 2004 031   114    1957   0.064    1539   0.049    6961       9    6951     521     952     476     769    4232       7       4       0       0       0       0       3      70       5       7       4       8      46    6877     516     945     472     761    4183    2.24    0.09    0.02    0.02    0.01    0.01    0.02    1.29    0.01    0.01    0.00    0.00    0.00    0.00    0.95    0.08    0.02    0.02    0.01    0.01    0.02       0
 2004 032   115    1957   0.064    1539   0.049    6960       9    6951     521     952     476     769    4232       7       4       0       0       0       0       3      70       5       7       4       8      46    6877     516     945     472     761    4183    2.22    0.09    0.02    0.02    0.01    0.01    0.02    1.28    0.01    0.01    0.00    0.00    0.00    0.00    0.95    0.08    0.02    0.02    0.01    0.01    0.02       0
 2004 033   116    1957   0.064    1539   0.049    6960       9    6951     521     952     476     769    4232       7       4       0       0       0       0       3      70       5       7       4       8      46    6877     516     944     472     761    4183    2.21    0.08    0.02    0.02    0.01    0.01    0.02    1.26    0.01    0.01    0.00    0.00    0.00    0.00    0.95    0.08    0.02    0.02    0.01    0.01    0.02       0
 2004 034   117    1956   0.064    1539   0.049    6960       9    6951     521     952     476     769    4232       7       4       0       0       0       0       3      70       5       7       4       8      46    6876     516     944     472     761    4183    2.19    0.08    0.02    0.02    0.01    0.01    0.02    1.25    0.01    0.01    0.00    0.00    0.00    0.00    0.95    0.08    0.02    0.02    0.01    0.01    0.02       0
 2004 035   118    1956   0.064    1539   0.049    6960       9    6951     521     952     476     769    4232       7       4       0       0       0       0       3      70       5       7       4       8      46    6876     516     944     472     761    4183    2.19    0.08    0.02    0.02    0.01    0.01    0.02    1.24    0.01    0.01    0.00    0.00    0.00    0.00    0.95    0.08    0.02    0.02    0.01    0.01    0.02       0
 2004 036   119    1956   0.064    1539   0.049    6960       9    6950     521     952     476     769    4232       7       4       0       0       0       0       3      70       5       7       4       8      46    6876     516     944     472     761    4183    2.18    0.08    0.02    0.02    0.01    0.01    0.02    1.24    0.01    0.01    0.00    0.00    0.00    0.00    0.95    0.08    0.02    0.02    0.01    0.01    0.02       0
 2004 037   120    1956   0.064    1538   0.049    6960       9    6950     521     952     476     769    4232       7       4       0       0       0       0       3      70       5       7       4       8      46    6876     516     944     472     761    4183    2.18    0.08    0.02    0.02    0.01    0.01    0.02    1.23    0.01    0.01    0.00    0.00    0.00    0.00    0.95    0.07    0.02    0.02    0.01    0.01    0.02       0
 2004 038   121    1956   0.064    1538   0.049    6959       9    6950     521     952     476     769    4232       7       4       0       0       0       0       3      70       5       7       4       8      46    6876     516     944     472     761    4183    2.18    0.08    0.02    0.02    0.01    0.01    0.02    1.23    0.01    0.01    0.00    0.00    0.00    0.00    0.95    0.07    0.02    0.02    0.01    0.01    0.02       0
 2004 039   122    1956   0.064    1538   0.049    6959       9    6950     521     952     476     769    4232       7       4       0       0       0       0       3      70       5       7       4       8      46    6876     516     944     472     761    4183    2.17    0.08    0.02    0.02    0.01    0.01    0.02    1.23    0.01    0.01    0.00    0.00    0.00    0.00    0.95    0.07    0.02    0.02    0.01    0.01    0.02       0
 2004 040   123    1956   0.064    1538   0.049    6959       9    6950     521     952     476     769    4231       7       4       0       0       0       0       3      70       5       7       4       8      46    6876     516     944     472     761    4183    2.17    0.08    0.02    0.02    0.01    0.01    0.02    1.23    0.01    0.01    0.00    0.00    0.00    0.00    0.95    0.07    0.02    0.02    0.01    0.01    0.02       0
 2004 041   124    1956   0.064    1538   0.049    6959       9    6950     521     952     476     769    4231       7       4       0       0       0       0       3      70       5       7       4       8      46    6876     516     944     472     761    4183    2.17    0.08    0.02    0.02    0.01    0.01    0.02    1.22    0.01    0.01    0.00    0.00    0.00    0.00    0.95    0.07    0.02    0.02    0.01    0.01    0.02       0
 2004 042   125    1956   0.064    1538   0.049    6959       9    6950     521     952     476     769    4231       7       4       0       0       0       0       3      70       5       7       4       8      46    6876     516     944     472     761    4183    2.17    0.08    0.02    0.02    0.01    0.01    0.02    1.22    0.01    0.01    0.00    0.00    0.00    0.00    0.95    0.07    0.02    0.02    0.01    0.01    0.02       0
 2004 043   126    1956   0.064    1538   0.049    6959       9    6950     521     952     476     769    4231       7       4       0       0       0       0       3      70       5       7       4       8      46    6876     516     944     472     761    4183    2.16    0.08    0.02    0.02    0.01    0.01    0.02    1.22    0.01    0.01    0.00    0.00    0.00    0.00    0.95    0.07    0.02    0.02    0.01    0.01    0.02       0
 2004 044   127    1956   0.064    1538   0.049    6959       9    6949     521     952     476     769    4231       7       4       0       0       0       0       3      70       5       7       4       8      46    6875     516     944     472     761    4182    2.16    0.08    0.02    0.02    0.01    0.01    0.02    1.22    0.01    0.01    0.00    0.00    0.00    0.00    0.95    0.07    0.02    0.02    0.01    0.01    0.02       0
 2004 045   128    1956   0.064    1538   0.049    6959       9    6949     521     952     476     769    4231       7       4       0       0       0       0       3      70       5       7       4       8      46    6875     516     944     472     761    4182    2.16    0.08    0.02    0.02    0.01    0.01    0.02    1.21    0.01    0.01    0.00    0.00    0.00    0.00    0.95    0.07    0.02    0.02    0.01    0.01    0.02       0
 2004 046   129    1956   0.064    1538   0.049    6958       9    6949     521     952     476     769    4231       7       4       0       0       0       0       3      70       5       7       4       8      46    6875     516     944     472     761    4182    2.16    0.08    0.02    0.02    0.01    0.01    0.02    1.21    0.01    0.01    0.00    0.00    0.00    0.00    0.94    0.07    0.02    0.02    0.01    0.01    0.02       0
 2004 047   130    1956   0.064    1538   0.049    6958       9    6949     521     952     476     769    4231       7       4       0       0       0       0       3      70       5       7       4       8      46    6875     516     944     472     761    4182    2.15    0.08    0.02    0.02    0.01    0.01    0.02    1.21    0.01    0.01    0.00    0.00    0.00    0.00    0.94    0.07    0.02    0.02    0.01    0.01    0.02       0
 2004 048   131    1956   0.064    1538   0.049    6958       9    6949     521     952     476     769    4231       7       4       0       0       0       0       3      70       5       7       4       8      46    6875     516     944     472     761    4182    2.15    0.08    0.02    0.02    0.01    0.01    0.02    1.20    0.01    0.01    0.00    0.00    0.00    0.00    0.94    0.07    0.02    0.02    0.01    0.01    0.02       0
 2004 049   132    1956   0.064    1538   0.049    6958       9    6949     521     952     476     769    4231       7       4       0       0       0       0       3      70       5       7       4       8      46    6875     516     944     472     761    4182    2.15    0.08    0.02    0.02    0.01    0.01    0.02    1.20    0.01    0.01    0.00    0.00    0.00    0.00    0.94    0.07    0.02    0.02    0.01    0.01    0.02       0
 2004 050   133    1956   0.064    1538   0.049    6958       9    6949     521     952     476     769    4231       7       4       0       0       0       0       3      70       5       7       4       8      46    6875     516     944     472     761    4182    2.14    0.08    0.02    0.02    0.01    0.01    0.02    1.20    0.01    0.01    0.00    0.00    0.00    0.00    0.94    0.07    0.02    0.02    0.01    0.01    0.02       0
 2004 051   134    1956   0.064    1538   0.049    6958       9    6948     521     952     476     769    4230       7       4       0       0       0       0       3      70       5       7       4       8      46    6875     516     944     472     761    4182    2.14    0.08    0.02    0.02    0.01    0.01    0.02    1.20    0.01    0.01    0.00    0.00    0.00    0.00    0.94    0.07    0.02    0.02    0.01    0.01    0.02       0
 2004 052   135    1956   0.064    1538   0.049    6957       9    6948     521     952     476     769    4230       7       4       0       0       0       0       3      70       5       7       4       8      46    6875     516     944     472     761    4182    2.14    0.08    0.02    0.02    0.01    0.01    0.02    1.19    0.01    0.01    0.00    0.00    0.00    0.00    0.94    0.07    0.02    0.02    0.01    0.01    0.02       0
 2004 053   136    1956   0.064    1538   0.049    6957       9    6948     521     952     476     769    4230       7       4       0       0       0       0       3      70       5       7       4       8      46    6874     516     944     472     761    4182    2.13    0.08    0.02    0.02    0.01    0.01    0.02    1.19    0.01    0.01    0.00    0.00    0.00    0.00    0.94    0.07    0.02    0.02    0.01    0.01    0.02       0
 2004 054   137    1956   0.064    1538   0.049    6957       9    6948     521     952     476     769    4230       7       4       0       0       0       0       3      70       5       7       4       8      46    6874     516     944     472     761    4182    2.13    0.08    0.02    0.02    0.01    0.01    0.02    1.19    0.01    0.01    0.00    0.00    0.00    0.00    0.94    0.07    0.02    0.02    0.01    0.01    0.02       0
 2004 055   138    1956   0.064    1538   0.049    6957       9    6948     521     952     476     769    4230       7       4       0       0       0       0       3      70       5       7       4       8      46    6874     516     944     472     761    4182    2.13    0.08    0.02    0.02    0.01    0.01    0.02    1.18    0.01    0.01    0.00    0.00    0.00    0.00    0.94    0.07    0.02    0.02    0.01    0.01    0.02       0
 2004 056   139    1956   0.064    1538   0.049    6957       9    6948     521     952     476     769    4230       7       4       0       0       0       0       3      70       5       7       4       8      46    6874     516     944     472     761    4182    2.12    0.08    0.02    0.02    0.01    0.01    0.02    1.18    0.01    0.01    0.00    0.00    0.00    0.00    0.94    0.07    0.02    0.02    0.01    0.01    0.02       0
 2004 057   140    1956   0.064    1538   0.049    6957       9    6948     521     952     476     769    4230       7       4       0       0       0       0       3      69       5       7       4       8      46    6874     516     944     472     761    4182    2.12    0.08    0.02    0.02    0.01    0.01    0.02    1.18    0.01    0.01    0.00    0.00    0.00    0.00    0.94    0.07    0.02    0.02    0.01    0.01    0.02       0
 2004 058   141    1956   0.064    1538   0.049    6957       9    6947     521     952     476     769    4230       7       4       0       0       0       0       3      69       5       7       4       8      45    6874     516     944     472     761    4181    2.12    0.08    0.02    0.02    0.01    0.01    0.02    1.17    0.01    0.01    0.00    0.00    0.00    0.00    0.94    0.07    0.02    0.02    0.01    0.01    0.02       0
 2004 059   142    1956   0.063    1538   0.049    6956       9    6947     521     952     476     769    4230       7       4       0       0       0       0       3      69       5       7       4       8      45    6874     516     944     472     761    4181    2.11    0.08    0.02    0.02    0.01    0.01    0.02    1.17    0.01    0.01    0.00    0.00    0.00    0.00    0.94    0.07    0.02    0.02    0.01    0.01    0.02       0
 2004 060   143    1956   0.064    1538   0.049    6956       9    6947     521     952     476     769    4230       7       4       0       0       0       0       3      69       5       7       4       8      45    6874     516     944     472     761    4181    2.03    0.08    0.02    0.02    0.01    0.01    0.02    1.09    0.01    0.01    0.00    0.00    0.00    0.00    0.94    0.07    0.02    0.02    0.01    0.01    0.02       0
 2004 061   144    1956   0.063    1538   0.049    6956       9    6947     521     952     476     769    4229       7       4       0       0       0       0       3      69       5       7       4       8      45    6874     516     944     472     761    4181    1.94    0.08    0.02    0.02    0.01    0.01    0.02    1.01    0.01    0.01    0.00    0.00    0.00    0.00    0.94    0.07    0.02    0.02    0.01    0.01    0.02       0
 2004 062   145    1955   0.063    1538   0.049    6956       9    6947     521     952     476     769    4229       7       4       0       0       0       0       3      69       5       7       4       8      45    6873     516     944     472     761    4181    1.87    0.07    0.02    0.02    0.01    0.01    0.02    0.94    0.01    0.01    0.00    0.00    0.00    0.00    0.93    0.07    0.02    0.02    0.01    0.01    0.02       0
 2004 063   146    1955   0.063    1538   0.049    6955       9    6947     521     952     476     769    4229       7       4       0       0       0       0       3      69       5       7       4       8      45    6873     516     944     472     761    4181    1.80    0.07    0.02    0.02    0.01    0.01    0.02    0.87    0.01    0.01    0.00    0.00    0.00    0.00    0.93    0.07    0.02    0.02    0.01    0.01    0.02       0
 2004 064   147    1955   0.063    1538   0.049    6955       8    6947     521     952     476     769    4229       7       4       0       0       0       0       3      69       5       7       4       8      45    6873     516     944     472     761    4181    1.75    0.07    0.02    0.02    0.01    0.01    0.02    0.82    0.01    0.01    0.00    0.00    0.00    0.00    0.93    0.07    0.02    0.02    0.01    0.01    0.02       0
 2004 065   148    1955   0.063    1537   0.049    6955       8    6947     521     952     476     769    4229       7       4       0       0       0       0       3      69       5       7       4       8      45    6873     516     944     472     761    4181    1.71    0.07    0.02    0.02    0.01    0.01    0.02    0.79    0.00    0.00    0.00    0.00    0.00    0.00    0.92    0.07    0.02    0.02    0.01    0.01    0.02       0
 2004 066   149    1955   0.063    1537   0.049    6955       8    6946     521     952     476     769    4229       7       4       0       0       0       0       3      69       5       7       4       8      45    6873     516     944     472     761    4181    1.68    0.07    0.02    0.02    0.01    0.01    0.02    0.76    0.00    0.00    0.00    0.00    0.00    0.00    0.92    0.07    0.02    0.02    0.01    0.01    0.02       0
 2004 067   150    1955   0.063    1537   0.049    6954       8    6946     521     952     476     769    4229       6       4       0       0       0       0       3      69       5       7       4       8      45    6873     516     944     472     761    4181    1.65    0.07    0.02    0.02    0.01    0.01    0.02    0.73    0.00    0.00    0.00    0.00    0.00    0.00    0.92    0.07    0.02    0.02    0.01    0.01    0.02       0
 2004 068   151    1955   0.063    1537   0.049    6954       8    6946     521     952     476     769    4229       6       4       0       0       0       0       3      69       5       7       4       8      45    6873     516     944     472     761    4181    1.63    0.07    0.02    0.02    0.01    0.01    0.02    0.71    0.00    0.00    0.00    0.00    0.00    0.00    0.92    0.07    0.02    0.02    0.01    0.01    0.02       0
 2004 069   152    1955   0.063    1537   0.049    6954       8    6946     521     952     476     769    4229       6       4       0       0       0       0       3      69       5       7       4       8      45    6873     516     944     472     761    4181    1.61    0.07    0.02    0.02    0.01    0.01    0.02    0.70    0.00    0.00    0.00    0.00    0.00    0.00    0.92    0.07    0.02    0.02    0.01    0.01    0.02       0
 2004 070   153    1955   0.063    1537   0.049    6954       8    6946     521     952     476     769    4229       6       4       0       0       0       0       3      69       5       7       4       8      45    6873     516     944     472     761    4181    1.60    0.07    0.02    0.02    0.01    0.01    0.02    0.68    0.00    0.00    0.00    0.00    0.00    0.00    0.92    0.07    0.02    0.02    0.01    0.01    0.02       0
 2004 071   154    1955   0.063    1537   0.049    6954       8    6946     521     952     476     769    4229       6       4       0       0       0       0       3      69       5       7       4       8      45    6873     516     944     472     761    4181    1.58    0.07    0.02    0.02    0.01    0.01    0.02    0.67    0.00    0.00    0.00    0.00    0.00    0.00    0.92    0.07    0.02    0.02    0.01    0.01    0.02       0
 2004 072   155    1955   0.063    1537   0.049    6954       8    6946     521     952     476     769    4229       6       4       0       0       0       0       3      69       5       7       4       8      45    6873     516     944     472     761    4181    1.57    0.07    0.02    0.02    0.01    0.01    0.02    0.66    0.00    0.00    0.00    0.00    0.00    0.00    0.92    0.07    0.02    0.02    0.01    0.01    0.02       0
 2004 073   156    1955   0.063    1537   0.049    6953       8    6946     521     952     476     769    4229       6       4       0       0       0       0       3      69       5       7       4       8      45    6872     516     944     472     761    4181    1.56    0.07    0.02    0.02    0.01    0.01    0.02    0.65    0.00    0.00    0.00    0.00    0.00    0.00    0.91    0.07    0.02    0.02    0.01    0.01    0.02       0
 2004 074   157    1954   0.063    1537   0.049    6953       8    6946     521     952     476     769    4229       6       4       0       0       0       0       3      69       5       7       4       8      45    6872     516     944     472     761    4181    1.55    0.07    0.02    0.02    0.01    0.01    0.02    0.64    0.00    0.00    0.00    0.00    0.00    0.00    0.91    0.07    0.02    0.02    0.01    0.01    0.02       0
 2004 075   158    1954   0.063    1537   0.049    6953       8    6945     521     952     476     769    4228       6       4       0       0       0       0       3      69       5       7       4       8      45    6872     516     944     472     761    4180    1.55    0.07    0.02    0.02    0.01    0.01    0.02    0.63    0.00    0.00    0.00    0.00    0.00    0.00    0.91    0.07    0.02    0.02    0.01    0.01    0.02       0
 2004 076   159    1954   0.063    1537   0.049    6953       8    6945     521     952     476     768    4228       6       4       0       0       0       0       3      69       5       7       4       8      45    6872     516     944     472     761    4180    1.54    0.07    0.02    0.02    0.01    0.01    0.02    0.63    0.00    0.00    0.00    0.00    0.00    0.00    0.91    0.06    0.02    0.02    0.01    0.01    0.02       0
 2004 077   160    1954   0.063    1537   0.049    6953       8    6945     521     951     475     768    4228       6       4       0       0       0       0       3      69       5       7       4       8      45    6872     516     944     472     761    4180    1.54    0.07    0.02    0.02    0.01    0.01    0.02    0.63    0.00    0.00    0.00    0.00    0.00    0.00    0.91    0.06    0.02    0.02    0.01    0.01    0.02       0
 2004 078   161    1954   0.063    1537   0.049    6953       8    6945     521     951     475     768    4228       6       4       0       0       0       0       3      69       5       7       4       8      45    6872     516     944     472     760    4180    1.54    0.07    0.02    0.02    0.01    0.01    0.02    0.63    0.00    0.00    0.00    0.00    0.00    0.00    0.91    0.06    0.02    0.02    0.01    0.01    0.02       0
 2004 079   162    1954   0.063    1537   0.049    6953       8    6945     521     951     475     768    4228       6       4       0       0       0       0       3      69       5       7       4       8      45    6872     516     944     472     760    4180    1.54    0.07    0.02    0.02    0.01    0.01    0.02    0.63    0.00    0.00    0.00    0.00    0.00    0.00    0.91    0.06    0.02    0.02    0.01    0.01    0.02       0
 2004 080   163    1954   0.063    1537   0.049    6952       8    6945     521     951     475     768    4228       6       4       0       0       0       0       3      69       5       7       4       8      45    6872     516     944     472     760    4180    1.54    0.07    0.02    0.02    0.01    0.01    0.02    0.62    0.00    0.00    0.00    0.00    0.00    0.00    0.91    0.06    0.02    0.02    0.01    0.01    0.02       0
 2004 081   164    1954   0.063    1537   0.049    6952       8    6945     521     951     475     768    4228       6       4       0       0       0       0       3      69       5       7       4       8      45    6872     516     944     472     760    4180    1.53    0.07    0.02    0.02    0.01    0.01    0.02    0.62    0.00    0.00    0.00    0.00    0.00    0.00    0.91    0.06    0.02    0.02    0.01    0.01    0.02       0
 2004 082   165    1954   0.063    1537   0.049    6952       8    6944     521     951     475     768    4228       6       4       0       0       0       0       3      69       5       7       4       8      45    6871     516     944     472     760    4180    1.53    0.07    0.02    0.02    0.01    0.01    0.02    0.62    0.00    0.00    0.00    0.00    0.00    0.00    0.91    0.06    0.02    0.02    0.01    0.01    0.02       0
 2004 083   166    1954   0.063    1537   0.049    6952       8    6944     521     951     475     768    4228       6       4       0       0       0       0       3      69       5       7       4       8      45    6871     516     944     472     760    4180    1.53    0.07    0.02    0.02    0.01    0.01    0.02    0.62    0.00    0.00    0.00    0.00    0.00    0.00    0.91    0.06    0.01    0.02    0.01    0.01    0.02       0
 2004 084   167    1954   0.063    1537   0.049    6952       8    6944     521     951     475     768    4228       6       4       0       0       0       0       3      69       5       7       4       8      45    6871     516     944     472     760    4180    1.53    0.07    0.02    0.02    0.01    0.01    0.02    0.62    0.00    0.00    0.00    0.00    0.00    0.00    0.91    0.06    0.01    0.02    0.01    0.01    0.02       0
 2004 085   168    1954   0.063    1537   0.049    6952       8    6944     521     951     475     768    4228       6       4       0       0       0       0       3      69       5       7       4       8      45    6871     516     944     472     760    4180    1.53    0.07    0.02    0.02    0.01    0.01    0.02    0.62    0.00    0.00    0.00    0.00    0.00    0.00    0.91    0.06    0.01    0.02    0.01    0.01    0.02       0
 2004 086   169    1954   0.063    1537   0.049    6952       8    6944     521     951     475     768    4228       6       4       0       0       0       0       3      69       5       7       4       8      45    6871     516     944     472     760    4180    1.53    0.07    0.02    0.02    0.01    0.01    0.02    0.61    0.00    0.00    0.00    0.00    0.00    0.00    0.91    0.06    0.01    0.02    0.01    0.01    0.02       0
 2004 087   170    1954   0.063    1537   0.049    6952       8    6944     521     951     475     768    4228       6       4       0       0       0       0       3      69       5       7       4       8      45    6871     516     944     472     760    4180    1.52    0.07    0.02    0.02    0.01    0.01    0.02    0.61    0.00    0.00    0.00    0.00    0.00    0.00    0.91    0.06    0.01    0.02    0.01    0.01    0.02       0
 2004 088   171    1954   0.063    1537   0.049    6951       8    6944     521     951     475     768    4227       6       4       0       0       0       0       3      69       5       7       4       8      45    6871     516     944     472     760    4180    1.52    0.07    0.02    0.02    0.01    0.01    0.02    0.61    0.00    0.00    0.00    0.00    0.00    0.00    0.91    0.06    0.01    0.02    0.01    0.01    0.02       0
 2004 089   172    1954   0.063    1537   0.049    6951       8    6944     521     951     475     768    4227       6       4       0       0       0       0       3      69       5       7       4       8      45    6871     516     944     472     760    4180    1.52    0.07    0.02    0.02    0.01    0.01    0.02    0.61    0.00    0.00    0.00    0.00    0.00    0.00    0.91    0.06    0.01    0.02    0.01    0.01    0.02       0
 2004 090   173    1954   0.063    1537   0.049    6951       8    6943     521     951     475     768    4227       6       4       0       0       0       0       3      69       5       7       4       8      45    6871     516     944     472     760    4180    1.47    0.06    0.02    0.02    0.01    0.01    0.02    0.56    0.00    0.00    0.00    0.00    0.00    0.00    0.91    0.06    0.01    0.02    0.01    0.01    0.02       0
 2004 091   174    1954   0.063    1537   0.049    6951       8    6943     521     951     475     768    4227       6       4       0       0       0       0       3      69       5       7       4       8      45    6871     516     944     472     760    4180    1.42    0.06    0.02    0.02    0.01    0.01    0.02    0.52    0.00    0.00    0.00    0.00    0.00    0.00    0.90    0.06    0.01    0.02    0.01    0.01    0.02       0
 2004 092   175    1954   0.063    1537   0.049    6951       7    6943     521     951     475     768    4227       6       4       0       0       0       0       3      69       6       7       4       8      45    6870     516     944     472     760    4179    1.38    0.06    0.02    0.02    0.01    0.01    0.02    0.48    0.00    0.00    0.00    0.00    0.00    0.00    0.90    0.06    0.01    0.02    0.01    0.01    0.02       0
[...]
 2004 250   333    1956   0.064    1542   0.049    6947       5    6942     528     951     476     771    4217       3       5       1       1       0       1       3      82      13       9       5      11      44    6854     514     941     470     759    4170    2.03    0.94    0.14    0.26    0.11    0.17    0.26    0.00    0.52    0.05    0.15    0.07    0.10    0.14    2.03    0.42    0.08    0.11    0.04    0.07    0.12       0
 2004 251   334    1956   0.064    1542   0.049    6947       5    6942     528     951     476     771    4217       3       5       1       1       0       1       3      82      13       9       5      11      44    6854     514     941     470     759    4170    2.02    0.91    0.13    0.25    0.11    0.16    0.25    0.00    0.49    0.05    0.14    0.07    0.10    0.13    2.02    0.42    0.08    0.11    0.04    0.07    0.12       0
 2004 252   335    1956   0.064    1542   0.049    6947       5    6942     528     951     476     771    4216       3       5       1       1       0       1       3      82      13       9       5      11      44    6854     514     941     470     759    4170    2.02    0.93    0.14    0.26    0.11    0.16    0.26    0.00    0.50    0.05    0.14    0.07    0.10    0.14    2.02    0.42    0.08    0.11    0.04    0.07    0.12       0
 2004 253   336    1956   0.064    1542   0.049    6947       5    6942     528     951     476     771    4216       3       5       1       1       0       1       3      82      13       9       5      11      44    6854     514     941     470     759    4170    2.01    0.95    0.14    0.26    0.11    0.17    0.27    0.00    0.52    0.05    0.15    0.07    0.10    0.15    2.01    0.43    0.08    0.11    0.04    0.07    0.12       0
 2004 254   337    1956   0.064    1542   0.049    6947       5    6942     528     951     476     771    4216       3       5       1       1       0       1       3      82      13       9       5      11      44    6854     514     941     470     759    4170    2.01    0.98    0.14    0.27    0.12    0.17    0.28    0.00    0.54    0.06    0.15    0.07    0.10    0.15    2.01    0.44    0.09    0.12    0.04    0.07    0.12       0
 2004 255   338    1956   0.064    1542   0.049    6946       5    6942     528     951     476     771    4216       3       5       1       1       0       1       3      82      13       9       5      11      44    6854     514     941     470     759    4170    2.00    1.00    0.15    0.28    0.12    0.17    0.29    0.00    0.56    0.06    0.16    0.08    0.10    0.16    2.00    0.44    0.09    0.12    0.04    0.07    0.13       0
 2004 256   339    1956   0.064    1542   0.049    6946       5    6942     528     951     476     771    4216       3       5       1       1       0       1       3      82      13       9       5      11      44    6854     514     941     470     758    4170    2.00    1.02    0.15    0.28    0.12    0.17    0.30    0.00    0.57    0.06    0.16    0.08    0.10    0.17    2.00    0.45    0.09    0.12    0.05    0.07    0.13       0
 2004 257   340    1956   0.064    1542   0.049    6946       5    6942     528     951     476     771    4216       3       5       1       1       0       1       3      82      13       9       5      11      44    6854     514     941     470     758    4169    1.99    1.04    0.15    0.29    0.13    0.17    0.30    0.00    0.59    0.07    0.16    0.08    0.10    0.17    1.99    0.46    0.09    0.12    0.05    0.07    0.13       0
 2004 258   341    1956   0.064    1542   0.049    6946       4    6942     528     951     476     771    4216       2       5       1       1       0       1       3      82      13       9       5      11      44    6853     514     941     470     758    4169    1.99    1.06    0.16    0.29    0.13    0.18    0.31    0.00    0.60    0.07    0.17    0.08    0.11    0.18    1.99    0.46    0.09    0.12    0.05    0.07    0.13       0
 2004 259   342    1956   0.064    1542   0.049    6946       4    6942     528     951     476     771    4216       2       5       1       1       0       1       3      82      13       9       5      11      44    6853     514     941     470     758    4169    1.98    1.09    0.16    0.30    0.13    0.18    0.32    0.00    0.62    0.07    0.17    0.08    0.11    0.18    1.98    0.47    0.09    0.12    0.05    0.07    0.14       0
 2004 260   343    1956   0.064    1542   0.049    6946       4    6942     528     951     476     771    4216       2       5       1       1       0       1       3      82      13       9       5      11      44    6853     514     941     470     758    4169    1.98    1.11    0.17    0.30    0.13    0.18    0.33    0.00    0.63    0.08    0.17    0.08    0.11    0.19    1.98    0.48    0.09    0.13    0.05    0.07    0.14       0
 2004 261   344    1956   0.064    1542   0.049    6946       4    6942     528     951     476     771    4216       2       5       1       1       0       1       3      82      13       9       5      11      44    6853     514     941     470     758    4169    1.98    1.08    0.16    0.29    0.13    0.18    0.32    0.00    0.60    0.07    0.17    0.08    0.10    0.18    1.98    0.48    0.09    0.13    0.05    0.07    0.14       0
 2004 262   345    1956   0.064    1542   0.049    6946       4    6941     528     951     476     771    4216       2       5       1       1       0       1       3      82      13       9       5      11      44    6853     514     941     470     758    4169    1.97    1.04    0.16    0.28    0.12    0.17    0.31    0.00    0.56    0.07    0.16    0.08    0.10    0.17    1.97    0.47    0.09    0.13    0.05    0.07    0.14       0
 2004 263   346    1955   0.064    1542   0.049    6946       4    6941     528     951     476     770    4216       2       5       1       1       0       1       3      82      13       9       5      11      44    6853     514     941     470     758    4169    1.97    1.01    0.15    0.27    0.12    0.16    0.30    0.00    0.54    0.06    0.15    0.07    0.09    0.16    1.97    0.47    0.09    0.13    0.05    0.07    0.14       0
 2004 264   347    1955   0.064    1542   0.049    6945       4    6941     528     951     476     770    4216       2       5       1       1       0       1       3      82      13       9       5      11      44    6853     514     941     470     758    4169    1.96    0.97    0.15    0.26    0.12    0.16    0.29    0.00    0.50    0.06    0.14    0.07    0.08    0.15    1.96    0.47    0.09    0.12    0.05    0.07    0.14       0
 2004 265   348    1955   0.064    1542   0.049    6945       4    6941     528     951     476     770    4216       2       5       1       1       0       1       3      82      13       9       5      11      44    6853     514     941     470     758    4169    1.96    0.99    0.15    0.27    0.12    0.16    0.29    0.00    0.52    0.06    0.14    0.07    0.09    0.16    1.96    0.48    0.09    0.13    0.05    0.07    0.14       0
 2004 266   349    1955   0.064    1542   0.049    6945       4    6941     528     951     476     770    4216       2       5       1       1       0       1       3      82      13       9       5      11      44    6853     514     941     470     758    4169    1.96    1.02    0.16    0.27    0.12    0.16    0.30    0.00    0.53    0.07    0.15    0.07    0.09    0.16    1.95    0.49    0.09    0.13    0.05    0.07    0.14       0
 2004 267   350    1955   0.064    1542   0.049    6945       4    6941     528     951     476     770    4216       2       5       1       1       0       1       3      82      13       9       5      11      43    6853     514     941     470     758    4169    1.95    1.04    0.16    0.28    0.12    0.16    0.31    0.00    0.55    0.07    0.15    0.07    0.09    0.17    1.95    0.49    0.09    0.13    0.05    0.08    0.14       0
 2004 268   351    1955   0.064    1542   0.049    6945       4    6941     528     951     476     770    4216       2       5       1       1       0       1       3      82      13       9       5      11      43    6853     514     941     470     758    4169    1.94    1.00    0.16    0.27    0.12    0.16    0.30    0.00    0.51    0.06    0.14    0.07    0.08    0.16    1.94    0.49    0.09    0.13    0.05    0.08    0.14       0
 2004 269   352    1955   0.064    1542   0.049    6945       4    6941     528     951     476     770    4215       2       5       1       1       0       1       3      82      13       9       5      11      43    6852     514     941     470     758    4169    1.94    0.97    0.15    0.26    0.12    0.15    0.29    0.00    0.49    0.06    0.13    0.06    0.08    0.15    1.94    0.49    0.09    0.13    0.05    0.07    0.14       0
 2004 270   353    1955   0.064    1542   0.049    6945       4    6941     528     951     476     770    4215       2       5       1       1       0       1       3      82      13       9       5      11      43    6852     514     941     470     758    4169    1.94    0.95    0.15    0.26    0.11    0.15    0.28    0.00    0.46    0.06    0.13    0.06    0.07    0.14    1.94    0.49    0.09    0.13    0.05    0.07    0.14       0
 2004 271   354    1955   0.064    1542   0.049    6945       4    6940     528     951     476     770    4215       2       5       1       1       0       1       3      82      13       9       5      11      43    6852     514     941     470     758    4169    1.93    0.92    0.14    0.25    0.11    0.15    0.28    0.00    0.44    0.05    0.12    0.06    0.07    0.14    1.93    0.48    0.09    0.13    0.05    0.07    0.14       0
 2004 272   355    1955   0.064    1542   0.049    6944       4    6940     528     951     476     770    4215       2       5       1       1       0       1       3      82      13       9       5      11      43    6852     514     941     470     758    4169    1.92    0.90    0.14    0.24    0.11    0.14    0.27    0.00    0.42    0.05    0.11    0.06    0.07    0.13    1.92    0.48    0.09    0.13    0.05    0.07    0.14       0
 2004 273   356    1955   0.064    1542   0.049    6944       4    6940     528     951     476     770    4215       2       5       1       1       0       1       3      82      13       9       5      11      43    6852     514     941     470     758    4169    1.92    0.88    0.14    0.23    0.10    0.14    0.26    0.00    0.40    0.05    0.11    0.05    0.07    0.12    1.92    0.48    0.09    0.13    0.05    0.07    0.14       0
 2004 274   357    1955   0.064    1542   0.049    6944       4    6940     528     951     476     770    4215       2       5       1       1       0       1       3      82      13       9       5      11      43    6852     514     941     470     758    4169    1.91    0.86    0.13    0.23    0.10    0.14    0.26    0.00    0.38    0.04    0.10    0.05    0.06    0.12    1.91    0.48    0.09    0.13    0.05    0.07    0.14       0
 2004 275   358    1955   0.064    1542   0.049    6944       4    6940     528     951     476     770    4215       2       5       1       1       0       1       3      82      13       9       5      11      43    6852     514     941     470     758    4168    1.91    0.84    0.13    0.22    0.10    0.14    0.25    0.00    0.36    0.04    0.10    0.05    0.06    0.11    1.91    0.48    0.09    0.13    0.05    0.07    0.14       0
 2004 276   359    1955   0.064    1542   0.049    6944       4    6940     528     951     476     770    4215       2       5       1       1       0       1       3      82      13       9       5      11      43    6852     514     941     470     758    4168    1.90    0.82    0.13    0.22    0.10    0.13    0.25    0.00    0.35    0.04    0.09    0.05    0.06    0.11    1.90    0.48    0.09    0.13    0.05    0.07    0.14       0
 2004 277   360    1955   0.064    1541   0.049    6944       4    6940     528     951     476     770    4215       2       5       1       1       0       1       3      82      13       9       5      11      43    6852     514     941     470     758    4168    1.90    0.81    0.13    0.22    0.09    0.13    0.24    0.00    0.34    0.04    0.09    0.04    0.06    0.11    1.90    0.47    0.09    0.13    0.05    0.07    0.14       0
 2004 278   361    1955   0.064    1541   0.049    6944       4    6940     528     951     476     770    4215       2       5       1       1       0       1       3      82      13       9       5      11      43    6852     514     941     470     758    4168    1.90    0.80    0.12    0.21    0.09    0.13    0.24    0.00    0.33    0.04    0.09    0.04    0.06    0.10    1.90    0.47    0.09    0.13    0.05    0.07    0.14       0
 2004 279   362    1955   0.064    1541   0.049    6944       4    6940     528     951     476     770    4215       2       5       1       1       0       1       3      82      13       9       5      11      43    6852     514     941     470     758    4168    1.90    0.79    0.12    0.21    0.09    0.13    0.24    0.00    0.32    0.04    0.09    0.04    0.06    0.10    1.90    0.47    0.09    0.13    0.05    0.07    0.14       0
 2004 280   363    1955   0.064    1541   0.049    6944       4    6940     528     951     476     770    4215       2       5       1       1       0       1       3      82      13       9       5      11      43    6852     514     941     470     758    4168    1.89    0.79    0.12    0.21    0.09    0.13    0.23    0.00    0.31    0.03    0.09    0.04    0.05    0.10    1.89    0.47    0.09    0.12    0.05    0.07    0.14       0
 2004 281   364    1955   0.064    1541   0.049    6943       4    6939     528     951     476     770    4215       2       5       1       1       0       1       3      82      13       9       5      11      43    6852     514     941     470     758    4168    1.89    0.78    0.12    0.21    0.09    0.13    0.23    0.00    0.31    0.03    0.08    0.04    0.05    0.09    1.89    0.47    0.09    0.12    0.05    0.07    0.14       0
 2004 282   365    1955   0.064    1541   0.049    6943       4    6939     528     951     476     770    4215       2       5       1       1       0       1       3      82      13       9       5      11      43    6852     514     941     470     758    4168    1.89    0.77    0.12    0.21    0.09    0.12    0.23    0.00    0.30    0.03    0.08    0.04    0.05    0.09    1.89    0.47    0.09    0.12    0.05    0.07    0.14       0
 2004 283   366    1955   0.064    1541   0.049    6943       4    6939     528     951     476     770    4215       2       5       1       1       0       1       3      82      13       9       5      11      43    6852     514     941     470     758    4168    1.89    0.77    0.12    0.21    0.09    0.12    0.23    0.00    0.30    0.03    0.08    0.04    0.05    0.09    1.89    0.47    0.09    0.12    0.05    0.07    0.14       0
 2004 284   367    1955   0.064    1541   0.049    6943       4    6939     528     951     476     770    4214       2       5       1       1       0       1       3      82      13       9       5      11      43    6851     514     941     470     758    4168    1.89    0.76    0.12    0.21    0.09    0.12    0.22    0.00    0.29    0.03    0.08    0.04    0.05    0.09    1.89    0.47    0.09    0.12    0.05    0.07    0.14       0
 2004 285   368    1955   0.064    1541   0.049    6943       4    6939     528     951     476     770    4214       2       5       1       1       0       1       3      82      13       9       5      11      43    6851     514     941     470     758    4168    1.89    0.76    0.12    0.21    0.09    0.12    0.22    0.00    0.29    0.03    0.08    0.04    0.05    0.09    1.89    0.47    0.09    0.12    0.05    0.07    0.13       0
 2004 286   369    1955   0.064    1541   0.049    6943       4    6939     528     951     476     770    4214       2       5       1       1       0       1       3      82      13       9       5      11      43    6851     514     941     470     758    4168    1.88    0.75    0.12    0.21    0.09    0.12    0.22    0.00    0.28    0.03    0.08    0.04    0.05    0.08    1.88    0.47    0.09    0.12    0.05    0.07    0.13       0
 2004 287   370    1955   0.064    1541   0.049    6943       4    6939     528     951     476     770    4214       2       5       1       1       0       1       3      82      13       9       5      11      43    6851     514     941     470     758    4168    1.88    0.75    0.11    0.20    0.09    0.12    0.22    0.00    0.28    0.03    0.08    0.04    0.05    0.08    1.88    0.47    0.09    0.12    0.05    0.07    0.13       0
 2004 288   371    1955   0.064    1541   0.049    6943       4    6939     528     951     476     770    4214       2       5       1       1       0       1       3      82      13       9       5      11      43    6851     514     941     470     758    4168    1.88    0.74    0.11    0.20    0.09    0.12    0.22    0.00    0.28    0.03    0.08    0.04    0.05    0.08    1.88    0.47    0.09    0.12    0.05    0.07    0.13       0
 2004 289   372    1955   0.064    1541   0.049    6943       4    6939     528     951     476     770    4214       2       5       1       1       0       1       3      82      13       9       5      11      43    6851     514     941     470     758    4168    1.87    0.74    0.11    0.20    0.09    0.12    0.21    0.00    0.27    0.03    0.08    0.04    0.05    0.08    1.87    0.46    0.09    0.12    0.05    0.07    0.13       0
 2004 290   373    1955   0.064    1541   0.049    6943       4    6939     528     951     476     770    4214       2       5       1       1       0       1       3      82      13       9       5      11      43    6851     514     941     470     758    4168    1.87    0.73    0.11    0.20    0.09    0.12    0.21    0.00    0.27    0.03    0.08    0.04    0.05    0.08    1.87    0.46    0.09    0.12    0.05    0.07    0.13       0
 2004 291   374    1955   0.064    1541   0.049    6943       4    6939     528     951     476     770    4214       2       5       1       1       0       1       3      82      13       9       5      11      43    6851     514     941     470     758    4168    1.87    0.73    0.11    0.20    0.09    0.12    0.21    0.00    0.27    0.03    0.08    0.04    0.05    0.08    1.87    0.46    0.09    0.12    0.05    0.07    0.13       0
 2004 292   375    1955   0.064    1541   0.049    6943       4    6939     528     951     476     770    4214       2       5       1       1       0       1       3      82      13       9       5      11      43    6851     514     941     470     758    4168    1.87    0.73    0.11    0.20    0.09    0.12    0.21    0.00    0.26    0.03    0.08    0.04    0.05    0.08    1.87    0.46    0.09    0.12    0.05    0.07    0.13       0
 2004 293   376    1955   0.064    1541   0.049    6943       4    6939     528     951     476     770    4214       2       5       1       1       0       1       3      82      13       9       5      11      43    6851     514     941     470     758    4168    1.87    0.73    0.11    0.20    0.09    0.12    0.21    0.00    0.26    0.02    0.08    0.04    0.05    0.08    1.87    0.46    0.09    0.12    0.05    0.07    0.13       0
 2004 294   377    1955   0.064    1541   0.049    6943       4    6939     528     951     476     770    4214       2       5       1       1       0       1       3      82      13       9       5      11      43    6851     514     941     470     758    4168    1.87    0.72    0.11    0.20    0.09    0.12    0.21    0.00    0.26    0.02    0.08    0.04    0.05    0.08    1.87    0.46    0.09    0.12    0.05    0.07    0.13       0
