*SOM P DAILY OUTPUT FILE

*DSSAT Cropping System Model Ver. 4.5.1.023 -Stub         NOV 07, 2014; 01:44:25
                                                                                
*RUN   1        : N0 P0                     MZCER045 GHWA0401    1              
 MODEL          : MZCER045 - Maize                                              
 EXPERIMENT     : GHWA0401 MZ ON-STATION NXP (EXPERIMENT NO.2) 9 TRT            
 DATA PATH      :                                                               
 TREATMENT  1   : N0 P0                     MZCER045                            
  
!                                                                                                                                                                                                                                                                                                                                                                Cumul.
!               <---- SOM P in top layers ----> <--------------- Total Soil Organic Phosphorus ---------------> <------- Active Soil Organic Phosphorus (SOM1) -------> <-- Stable Soil Organic Phosphorus (SOM23) ---> <--------------------- Litter P ----------------------> <----------------- Metabolic Litter P ----------------> <---------------- Structural Litter P ---------------->  Res. P
!               20cm-kg  20cm-% 40cm-kg  40cm-%   Total Surface    Soil     0-5    5-15   15-20   20-30   30-90 Surface    Soil     0-5    5-15   15-20   20-30   30-90    Soil     0-5    5-15   15-20   20-30   30-90 Surface    Soil     0-5    5-15   15-20   20-30   30-90 Surface    Soil     0-5    5-15   15-20   20-30   30-90 Surface    Soil     0-5    5-15   15-20   20-30   30-90 (kg/ha)
@YEAR DOY   DAS  SPS20D  SP%20D  SPS40D  SP%40D    SOPD    SP0D    SPTD    SP1D    SP2D    SP3D    SP4D   SP5+D   S1P0D   S1PTD   S1P1D   S1P2D   S1P3D   S1P4D  S1P5+D  S23PTD  S23P1D  S23P2D  S23P3D  S23P4D  S23P+D    LP0D    LPTD    LP1D    LP2D    LP3D    LP4D   LP5+D   MEP0D   MEPTD   MEP1D   MEP2D   MEP3D   MEP4D  MEP5+D   STP0D   STPTD   STP1D   STP2D   STP3D   STP4D  STP5+D   RESPC
 2003 282     0      51  0.0017      41  0.0013  200.77    3.87  196.90   13.65   25.18   12.58   20.72  124.76    0.00    2.14    0.12    0.23    0.12    0.25    1.43  194.52   13.49   24.89   12.44   20.44  123.26    3.87    0.24    0.04    0.06    0.02    0.04    0.08    3.55    0.20    0.03    0.05    0.02    0.03    0.07    0.32    0.04    0.01    0.01    0.00    0.01    0.01    0.00
 2003 283     1      51  0.0017      41  0.0013  200.68    3.78  196.91   13.65   25.18   12.58   20.73  124.77    0.13    2.17    0.13    0.24    0.12    0.25    1.44  194.51   13.49   24.89   12.44   20.44  123.26    3.65    0.22    0.04    0.06    0.02    0.04    0.07    3.32    0.19    0.03    0.05    0.02    0.03    0.06    0.32    0.04    0.01    0.01    0.00    0.01    0.01    0.00
 2003 284     2      52  0.0017      41  0.0013  200.61    3.70  196.91   13.65   25.18   12.58   20.73  124.77    0.24    2.19    0.13    0.24    0.12    0.25    1.45  194.51   13.49   24.89   12.44   20.44  123.26    3.46    0.21    0.03    0.05    0.02    0.03    0.07    3.14    0.18    0.03    0.04    0.02    0.03    0.06    0.32    0.03    0.01    0.01    0.00    0.01    0.01    0.00
 2003 285     3      52  0.0017      41  0.0013  200.54    3.62  196.92   13.65   25.18   12.58   20.73  124.78    0.34    2.21    0.13    0.24    0.12    0.26    1.46  194.51   13.49   24.89   12.44   20.44  123.25    3.28    0.20    0.03    0.05    0.02    0.03    0.06    2.96    0.16    0.03    0.04    0.02    0.03    0.05    0.32    0.03    0.01    0.01    0.00    0.01    0.01    0.00
 2003 286     4      52  0.0017      41  0.0013  200.47    3.54  196.93   13.65   25.18   12.58   20.73  124.78    0.44    2.23    0.13    0.25    0.12    0.26    1.47  194.51   13.49   24.89   12.44   20.44  123.25    3.10    0.18    0.03    0.05    0.02    0.03    0.06    2.78    0.15    0.02    0.04    0.01    0.02    0.05    0.32    0.03    0.01    0.01    0.00    0.01    0.01    0.00
 2003 287     5      52  0.0017      41  0.0013  200.40    3.47  196.93   13.65   25.18   12.58   20.73  124.79    0.55    2.25    0.13    0.25    0.12    0.26    1.48  194.51   13.49   24.89   12.44   20.44  123.25    2.92    0.17    0.03    0.04    0.02    0.03    0.06    2.60    0.14    0.02    0.03    0.01    0.02    0.05    0.32    0.03    0.01    0.01    0.00    0.01    0.01    0.00
 2003 288     6      52  0.0017      41  0.0013  200.34    3.40  196.94   13.65   25.18   12.58   20.73  124.79    0.64    2.27    0.13    0.26    0.13    0.26    1.49  194.51   13.49   24.89   12.44   20.44  123.25    2.76    0.16    0.03    0.04    0.02    0.02    0.05    2.45    0.13    0.02    0.03    0.01    0.02    0.04    0.31    0.03    0.01    0.01    0.00    0.01    0.01    0.00
 2003 289     7      52  0.0017      41  0.0013  200.29    3.34  196.95   13.65   25.18   12.58   20.73  124.80    0.71    2.28    0.14    0.26    0.13    0.26    1.50  194.51   13.49   24.89   12.44   20.44  123.25    2.63    0.15    0.03    0.04    0.02    0.02    0.05    2.32    0.12    0.02    0.03    0.01    0.02    0.04    0.31    0.03    0.01    0.01    0.00    0.01    0.01    0.00
 2003 290     8      52  0.0017      41  0.0013  200.25    3.29  196.96   13.65   25.18   12.58   20.73  124.81    0.78    2.30    0.14    0.26    0.13    0.27    1.51  194.51   13.49   24.89   12.44   20.44  123.25    2.51    0.15    0.02    0.04    0.01    0.02    0.05    2.20    0.11    0.02    0.03    0.01    0.02    0.04    0.31    0.03    0.01    0.01    0.00    0.01    0.01    0.00
 2003 291     9      52  0.0017      41  0.0013  200.21    3.25  196.96   13.65   25.18   12.58   20.73  124.81    0.84    2.32    0.14    0.26    0.13    0.27    1.52  194.51   13.49   24.89   12.44   20.44  123.25    2.41    0.14    0.02    0.03    0.01    0.02    0.05    2.10    0.11    0.02    0.03    0.01    0.02    0.04    0.31    0.03    0.01    0.01    0.00    0.01    0.01    0.00
 2003 292    10      52  0.0017      41  0.0013  200.17    3.20  196.97   13.66   25.19   12.58   20.73  124.82    0.91    2.33    0.14    0.27    0.13    0.27    1.53  194.51   13.50   24.89   12.44   20.44  123.25    2.29    0.13    0.02    0.03    0.01    0.02    0.04    1.98    0.10    0.02    0.02    0.01    0.02    0.03    0.31    0.03    0.01    0.01    0.00    0.01    0.01    0.00
 2003 293    11      52  0.0017      41  0.0013  200.14    3.16  196.98   13.66   25.19   12.58   20.73  124.83    0.97    2.35    0.14    0.27    0.13    0.27    1.54  194.51   13.50   24.89   12.44   20.44  123.25    2.19    0.13    0.02    0.03    0.01    0.02    0.04    1.89    0.09    0.02    0.02    0.01    0.01    0.03    0.31    0.03    0.01    0.01    0.00    0.01    0.01    0.00
 2003 294    12      52  0.0017      41  0.0013  200.11    3.12  196.99   13.66   25.19   12.58   20.73  124.84    1.01    2.37    0.14    0.27    0.13    0.27    1.55  194.51   13.50   24.89   12.44   20.44  123.24    2.11    0.12    0.02    0.03    0.01    0.02    0.04    1.81    0.09    0.01    0.02    0.01    0.01    0.03    0.31    0.03    0.01    0.01    0.00    0.01    0.01    0.00
 2003 295    13      52  0.0017      41  0.0013  200.10    3.10  197.00   13.66   25.19   12.58   20.73  124.84    1.05    2.38    0.14    0.27    0.13    0.27    1.56  194.51   13.50   24.89   12.44   20.44  123.24    2.05    0.11    0.02    0.03    0.01    0.02    0.04    1.74    0.08    0.01    0.02    0.01    0.01    0.03    0.31    0.03    0.01    0.01    0.00    0.01    0.01    0.00
 2003 296    14      52  0.0017      41  0.0013  200.08    3.07  197.01   13.66   25.19   12.58   20.73  124.85    1.08    2.40    0.14    0.27    0.13    0.28    1.57  194.50   13.50   24.89   12.44   20.44  123.24    1.99    0.11    0.02    0.03    0.01    0.02    0.04    1.69    0.08    0.01    0.02    0.01    0.01    0.03    0.30    0.03    0.01    0.01    0.00    0.01    0.01    0.00
 2003 297    15      53  0.0017      41  0.0013  200.05    3.03  197.02   13.66   25.19   12.58   20.73  124.86    1.14    2.41    0.14    0.28    0.13    0.28    1.58  194.50   13.50   24.88   12.44   20.44  123.24    1.89    0.10    0.02    0.03    0.01    0.02    0.03    1.58    0.07    0.01    0.02    0.01    0.01    0.02    0.30    0.03    0.01    0.01    0.00    0.01    0.01    0.00
 2003 298    16      53  0.0017      41  0.0013  200.01    2.98  197.03   13.66   25.19   12.58   20.73  124.87    1.20    2.43    0.14    0.28    0.13    0.28    1.60  194.50   13.50   24.88   12.44   20.44  123.24    1.78    0.10    0.02    0.02    0.01    0.01    0.03    1.48    0.06    0.01    0.02    0.01    0.01    0.02    0.30    0.03    0.01    0.01    0.00    0.00    0.01    0.00
 2003 299    17      53  0.0017      41  0.0013  199.98    2.94  197.04   13.66   25.19   12.58   20.73  124.87    1.25    2.44    0.14    0.28    0.13    0.28    1.60  194.50   13.50   24.88   12.44   20.44  123.24    1.69    0.09    0.02    0.02    0.01    0.01    0.03    1.39    0.06    0.01    0.01    0.01    0.01    0.02    0.30    0.03    0.01    0.01    0.00    0.00    0.01    0.00
 2003 300    18      53  0.0017      41  0.0013  199.96    2.91  197.05   13.67   25.19   12.58   20.73  124.88    1.29    2.46    0.15    0.28    0.13    0.28    1.61  194.50   13.51   24.88   12.44   20.44  123.24    1.62    0.09    0.01    0.02    0.01    0.01    0.03    1.32    0.06    0.01    0.01    0.01    0.01    0.02    0.30    0.03    0.01    0.01    0.00    0.00    0.01    0.00
 2003 301    19      53  0.0017      41  0.0013  199.94    2.89  197.05   13.67   25.19   12.58   20.73  124.89    1.33    2.47    0.15    0.28    0.13    0.28    1.62  194.50   13.51   24.88   12.44   20.44  123.23    1.56    0.08    0.01    0.02    0.01    0.01    0.03    1.26    0.05    0.01    0.01    0.00    0.01    0.02    0.30    0.03    0.01    0.01    0.00    0.00    0.01    0.00
 2003 302    20      53  0.0017      41  0.0013  199.93    2.87  197.06   13.67   25.19   12.58   20.73  124.89    1.35    2.48    0.15    0.29    0.13    0.28    1.63  194.50   13.51   24.88   12.44   20.44  123.23    1.51    0.08    0.01    0.02    0.01    0.01    0.03    1.21    0.05    0.01    0.01    0.00    0.01    0.02    0.30    0.03    0.01    0.01    0.00    0.00    0.01    0.00
 2003 303    21      53  0.0017      41  0.0013  199.92    2.85  197.07   13.67   25.19   12.58   20.73  124.90    1.38    2.49    0.15    0.29    0.13    0.28    1.64  194.50   13.51   24.88   12.44   20.44  123.23    1.47    0.08    0.01    0.02    0.01    0.01    0.03    1.18    0.04    0.01    0.01    0.00    0.01    0.02    0.30    0.03    0.01    0.01    0.00    0.00    0.01    0.00
 2003 304    22      53  0.0017      41  0.0013  199.90    2.82  197.08   13.67   25.19   12.58   20.73  124.90    1.42    2.51    0.15    0.29    0.14    0.28    1.65  194.50   13.51   24.88   12.44   20.44  123.23    1.40    0.07    0.01    0.02    0.01    0.01    0.02    1.10    0.04    0.01    0.01    0.00    0.01    0.01    0.29    0.03    0.01    0.01    0.00    0.00    0.01    0.00
 2003 305    23      53  0.0017      41  0.0013  199.88    2.79  197.09   13.67   25.19   12.58   20.73  124.91    1.46    2.52    0.15    0.29    0.14    0.29    1.66  194.50   13.51   24.88   12.44   20.44  123.23    1.33    0.07    0.01    0.02    0.01    0.01    0.02    1.04    0.04    0.01    0.01    0.00    0.01    0.01    0.29    0.03    0.01    0.01    0.00    0.00    0.01    0.00
 2003 306    24      53  0.0017      41  0.0013  199.86    2.77  197.10   13.68   25.19   12.58   20.73  124.92    1.49    2.53    0.15    0.29    0.14    0.29    1.66  194.50   13.52   24.88   12.44   20.44  123.23    1.28    0.07    0.01    0.02    0.01    0.01    0.02    0.99    0.04    0.01    0.01    0.00    0.01    0.01    0.29    0.03    0.00    0.01    0.00    0.00    0.01    0.00
 2003 307    25      53  0.0017      41  0.0013  199.85    2.75  197.10   13.68   25.19   12.58   20.73  124.92    1.51    2.54    0.15    0.29    0.14    0.29    1.67  194.50   13.52   24.88   12.44   20.44  123.23    1.24    0.06    0.01    0.02    0.01    0.01    0.02    0.95    0.03    0.01    0.01    0.00    0.00    0.01    0.29    0.03    0.00    0.01    0.00    0.00    0.01    0.00
 2003 308    26      53  0.0017      41  0.0013  199.84    2.73  197.11   13.68   25.19   12.58   20.73  124.93    1.53    2.55    0.15    0.29    0.14    0.29    1.68  194.50   13.52   24.88   12.44   20.44  123.23    1.20    0.06    0.01    0.01    0.01    0.01    0.02    0.91    0.03    0.01    0.01    0.00    0.00    0.01    0.29    0.03    0.00    0.01    0.00    0.00    0.01    0.00
 2003 309    27      53  0.0017      41  0.0013  199.84    2.72  197.12   13.68   25.19   12.58   20.73  124.93    1.55    2.56    0.15    0.30    0.14    0.29    1.69  194.50   13.52   24.88   12.44   20.44  123.23    1.17    0.06    0.01    0.01    0.01    0.01    0.02    0.88    0.03    0.01    0.01    0.00    0.00    0.01    0.29    0.03    0.00    0.01    0.00    0.00    0.01    0.00
 2003 310    28      53  0.0017      41  0.0013  199.83    2.71  197.13   13.68   25.19   12.58   20.73  124.94    1.56    2.57    0.15    0.30    0.14    0.29    1.69  194.50   13.52   24.88   12.44   20.44  123.22    1.15    0.06    0.01    0.01    0.01    0.01    0.02    0.86    0.03    0.01    0.01    0.00    0.00    0.01    0.29    0.03    0.00    0.01    0.00    0.00    0.01    0.00
 2003 311    29      53  0.0017      41  0.0013  199.82    2.69  197.13   13.68   25.19   12.58   20.73  124.94    1.59    2.58    0.15    0.30    0.14    0.29    1.70  194.50   13.52   24.88   12.44   20.44  123.22    1.10    0.06    0.01    0.01    0.01    0.01    0.02    0.81    0.03    0.01    0.01    0.00    0.00    0.01    0.29    0.03    0.00    0.01    0.00    0.00    0.01    0.00
 2003 312    30      53  0.0017      41  0.0013  199.81    2.67  197.14   13.68   25.19   12.58   20.73  124.95    1.62    2.59    0.15    0.30    0.14    0.29    1.71  194.50   13.52   24.88   12.44   20.44  123.22    1.06    0.05    0.01    0.01    0.00    0.01    0.02    0.77    0.02    0.00    0.01    0.00    0.00    0.01    0.29    0.03    0.00    0.01    0.00    0.00    0.01    0.00
 2003 313    31      53  0.0017      41  0.0013  199.80    2.65  197.15   13.69   25.19   12.58   20.74  124.95    1.64    2.60    0.15    0.30    0.14    0.29    1.71  194.50   13.53   24.88   12.44   20.44  123.22    1.01    0.05    0.01    0.01    0.00    0.01    0.02    0.72    0.02    0.00    0.01    0.00    0.00    0.01    0.28    0.03    0.00    0.01    0.00    0.00    0.01    0.00
 2003 314    32      53  0.0017      41  0.0013  199.79    2.63  197.16   13.69   25.19   12.58   20.74  124.96    1.66    2.61    0.15    0.30    0.14    0.29    1.72  194.50   13.53   24.88   12.44   20.44  123.22    0.97    0.05    0.01    0.01    0.00    0.01    0.02    0.69    0.02    0.00    0.00    0.00    0.00    0.01    0.28    0.03    0.00    0.01    0.00    0.00    0.01    0.00
 2003 315    33      53  0.0017      41  0.0013  199.78    2.62  197.16   13.69   25.19   12.58   20.74  124.97    1.68    2.62    0.15    0.30    0.14    0.29    1.73  194.50   13.53   24.88   12.44   20.44  123.22    0.94    0.05    0.01    0.01    0.00    0.01    0.02    0.66    0.02    0.00    0.00    0.00    0.00    0.01    0.28    0.03    0.00    0.01    0.00    0.00    0.01    0.00
 2003 316    34      53  0.0017      41  0.0013  199.78    2.61  197.17   13.69   25.19   12.58   20.74  124.97    1.70    2.63    0.15    0.30    0.14    0.29    1.74  194.50   13.53   24.88   12.44   20.43  123.22    0.91    0.05    0.01    0.01    0.00    0.01    0.02    0.63    0.02    0.00    0.00    0.00    0.00    0.01    0.28    0.03    0.00    0.01    0.00    0.00    0.01    0.00
 2003 317    35      53  0.0017      41  0.0013  199.78    2.60  197.18   13.69   25.19   12.58   20.74  124.98    1.71    2.64    0.15    0.30    0.14    0.29    1.75  194.50   13.53   24.88   12.44   20.43  123.21    0.89    0.05    0.01    0.01    0.00    0.01    0.02    0.61    0.02    0.00    0.00    0.00    0.00    0.01    0.28    0.03    0.00    0.01    0.00    0.00    0.01    0.00
 2003 318    36      53  0.0017      41  0.0013  199.78    2.59  197.19   13.69   25.19   12.58   20.74  124.98    1.72    2.65    0.15    0.30    0.14    0.30    1.76  194.50   13.53   24.88   12.44   20.43  123.21    0.87    0.04    0.01    0.01    0.00    0.01    0.02    0.59    0.02    0.00    0.00    0.00    0.00    0.01    0.28    0.03    0.00    0.01    0.00    0.00    0.01    0.00
 2003 319    37      53  0.0017      41  0.0013  199.78    2.58  197.20   13.69   25.19   12.58   20.74  124.99    1.73    2.66    0.15    0.30    0.14    0.30    1.76  194.49   13.53   24.88   12.44   20.43  123.21    0.85    0.04    0.01    0.01    0.00    0.01    0.01    0.58    0.02    0.00    0.00    0.00    0.00    0.01    0.28    0.03    0.00    0.01    0.00    0.00    0.01    0.00
 2003 320    38      53  0.0017      41  0.0013  199.78    2.58  197.20   13.70   25.20   12.58   20.74  125.00    1.74    2.67    0.15    0.31    0.14    0.30    1.77  194.49   13.53   24.88   12.44   20.43  123.21    0.84    0.04    0.01    0.01    0.00    0.01    0.01    0.56    0.01    0.00    0.00    0.00    0.00    0.01    0.28    0.03    0.00    0.01    0.00    0.00    0.01    0.00
 2003 321    39      53  0.0017      41  0.0013  199.78    2.57  197.21   13.70   25.20   12.58   20.74  125.00    1.74    2.68    0.15    0.31    0.14    0.30    1.78  194.49   13.53   24.88   12.44   20.43  123.21    0.83    0.04    0.01    0.01    0.00    0.01    0.01    0.55    0.01    0.00    0.00    0.00    0.00    0.00    0.28    0.03    0.00    0.01    0.00    0.00    0.01    0.00
 2003 322    40      53  0.0017      41  0.0013  199.79    2.57  197.22   13.70   25.20   12.58   20.74  125.01    1.75    2.69    0.15    0.31    0.14    0.30    1.79  194.49   13.54   24.88   12.44   20.43  123.21    0.82    0.04    0.01    0.01    0.00    0.01    0.01    0.54    0.01    0.00    0.00    0.00    0.00    0.00    0.28    0.03    0.00    0.01    0.00    0.00    0.01    0.00
 2003 323    41      53  0.0017      41  0.0013  199.79    2.56  197.23   13.70   25.20   12.58   20.74  125.02    1.75    2.70    0.15    0.31    0.14    0.30    1.80  194.49   13.54   24.88   12.44   20.43  123.20    0.81    0.04    0.01    0.01    0.00    0.01    0.01    0.53    0.01    0.00    0.00    0.00    0.00    0.00    0.28    0.03    0.00    0.01    0.00    0.00    0.01    0.00
 2003 324    42      53  0.0017      41  0.0013  199.80    2.56  197.23   13.70   25.20   12.58   20.74  125.02    1.76    2.71    0.15    0.31    0.14    0.30    1.81  194.49   13.54   24.88   12.44   20.43  123.20    0.81    0.04    0.01    0.01    0.00    0.01    0.01    0.53    0.01    0.00    0.00    0.00    0.00    0.00    0.28    0.03    0.00    0.01    0.00    0.00    0.01    0.00
 2003 325    43      53  0.0017      41  0.0013  199.80    2.56  197.24   13.70   25.20   12.58   20.74  125.03    1.76    2.72    0.15    0.31    0.14    0.30    1.81  194.48   13.54   24.88   12.44   20.43  123.20    0.80    0.04    0.01    0.01    0.00    0.01    0.01    0.53    0.01    0.00    0.00    0.00    0.00    0.00    0.28    0.03    0.00    0.01    0.00    0.00    0.01    0.00
 2003 326    44      53  0.0017      41  0.0013  199.81    2.56  197.25   13.70   25.20   12.58   20.74  125.03    1.76    2.73    0.15    0.31    0.14    0.30    1.82  194.48   13.54   24.88   12.43   20.43  123.20    0.80    0.04    0.01    0.01    0.00    0.01    0.01    0.52    0.01    0.00    0.00    0.00    0.00    0.00    0.28    0.03    0.00    0.01    0.00    0.00    0.01    0.00
 2003 327    45      53  0.0017      41  0.0013  199.81    2.56  197.26   13.70   25.20   12.58   20.74  125.04    1.76    2.74    0.15    0.31    0.14    0.30    1.83  194.48   13.54   24.88   12.43   20.43  123.20    0.80    0.04    0.01    0.01    0.00    0.01    0.01    0.52    0.01    0.00    0.00    0.00    0.00    0.00    0.28    0.03    0.00    0.01    0.00    0.00    0.01    0.00
 2003 328    46      53  0.0017      41  0.0013  199.82    2.56  197.26   13.70   25.20   12.58   20.74  125.05    1.76    2.75    0.15    0.31    0.14    0.30    1.84  194.48   13.54   24.88   12.43   20.43  123.20    0.80    0.04    0.01    0.01    0.00    0.00    0.01    0.52    0.01    0.00    0.00    0.00    0.00    0.00    0.28    0.03    0.00    0.01    0.00    0.00    0.01    0.00
 2003 329    47      53  0.0017      41  0.0013  199.83    2.56  197.27   13.70   25.20   12.58   20.74  125.05    1.76    2.76    0.15    0.31    0.14    0.30    1.85  194.47   13.54   24.88   12.43   20.43  123.19    0.79    0.03    0.01    0.01    0.00    0.00    0.01    0.52    0.01    0.00    0.00    0.00    0.00    0.00    0.28    0.03    0.00    0.01    0.00    0.00    0.01    0.00
 2003 330    48      53  0.0017      41  0.0013  199.83    2.56  197.28   13.70   25.20   12.58   20.74  125.06    1.76    2.77    0.15    0.31    0.14    0.30    1.86  194.47   13.54   24.88   12.43   20.43  123.19    0.79    0.03    0.01    0.01    0.00    0.00    0.01    0.52    0.01    0.00    0.00    0.00    0.00    0.00    0.28    0.03    0.00    0.01    0.00    0.00    0.01    0.00
 2003 331    49      53  0.0017      41  0.0013  199.84    2.56  197.28   13.70   25.20   12.58   20.74  125.07    1.76    2.78    0.15    0.31    0.14    0.31    1.86  194.47   13.54   24.88   12.43   20.43  123.19    0.79    0.03    0.01    0.01    0.00    0.00    0.01    0.52    0.01    0.00    0.00    0.00    0.00    0.00    0.28    0.03    0.00    0.01    0.00    0.00    0.01    0.00
 2003 332    50      53  0.0017      41  0.0013  199.85    2.55  197.29   13.70   25.20   12.58   20.74  125.07    1.76    2.79    0.15    0.32    0.14    0.31    1.87  194.47   13.54   24.88   12.43   20.43  123.19    0.79    0.03    0.01    0.01    0.00    0.00    0.01    0.51    0.01    0.00    0.00    0.00    0.00    0.00    0.28    0.03    0.00    0.01    0.00    0.00    0.01    0.00
 2003 333    51      53  0.0017      41  0.0013  199.85    2.55  197.30   13.70   25.20   12.58   20.74  125.08    1.76    2.80    0.15    0.32    0.14    0.31    1.88  194.46   13.54   24.88   12.43   20.43  123.19    0.79    0.03    0.01    0.01    0.00    0.00    0.01    0.51    0.01    0.00    0.00    0.00    0.00    0.00    0.28    0.03    0.00    0.01    0.00    0.00    0.01    0.00
 2003 334    52      53  0.0017      41  0.0013  199.86    2.55  197.31   13.70   25.20   12.58   20.74  125.09    1.77    2.81    0.15    0.32    0.14    0.31    1.89  194.46   13.54   24.88   12.43   20.43  123.19    0.79    0.03    0.01    0.01    0.00    0.00    0.01    0.51    0.01    0.00    0.00    0.00    0.00    0.00    0.28    0.03    0.00    0.01    0.00    0.00    0.01    0.00
 2003 335    53      53  0.0017      41  0.0013  199.87    2.55  197.31   13.70   25.20   12.58   20.74  125.09    1.77    2.82    0.15    0.32    0.14    0.31    1.90  194.46   13.54   24.88   12.43   20.43  123.18    0.79    0.03    0.01    0.01    0.00    0.00    0.01    0.51    0.01    0.00    0.00    0.00    0.00    0.00    0.28    0.03    0.00    0.01    0.00    0.00    0.01    0.00
 2003 336    54      53  0.0017      41  0.0013  199.87    2.55  197.32   13.70   25.20   12.58   20.74  125.10    1.77    2.83    0.15    0.32    0.14    0.31    1.91  194.46   13.54   24.87   12.43   20.43  123.18    0.79    0.03    0.01    0.01    0.00    0.00    0.01    0.51    0.01    0.00    0.00    0.00    0.00    0.00    0.28    0.03    0.00    0.01    0.00    0.00    0.01    0.00
 2003 337    55      53  0.0017      41  0.0013  199.88    2.55  197.33   13.70   25.20   12.58   20.74  125.10    1.77    2.84    0.15    0.32    0.15    0.31    1.91  194.45   13.54   24.87   12.43   20.43  123.18    0.78    0.03    0.01    0.01    0.00    0.00    0.01    0.51    0.01    0.00    0.00    0.00    0.00    0.00    0.28    0.02    0.00    0.01    0.00    0.00    0.01    0.00
 2003 338    56      53  0.0017      41  0.0013  199.89    2.55  197.33   13.70   25.20   12.58   20.74  125.11    1.77    2.85    0.15    0.32    0.15    0.31    1.92  194.45   13.54   24.87   12.43   20.43  123.18    0.78    0.03    0.01    0.01    0.00    0.00    0.01    0.51    0.01    0.00    0.00    0.00    0.00    0.00    0.28    0.02    0.00    0.01    0.00    0.00    0.01    0.00
 2003 339    57      53  0.0017      41  0.0013  199.89    2.55  197.34   13.70   25.20   12.58   20.74  125.12    1.77    2.86    0.15    0.32    0.15    0.31    1.93  194.45   13.54   24.87   12.43   20.43  123.18    0.78    0.03    0.01    0.01    0.00    0.00    0.01    0.51    0.01    0.00    0.00    0.00    0.00    0.00    0.28    0.02    0.00    0.01    0.00    0.00    0.01    0.00
 2003 340    58      53  0.0017      41  0.0013  199.90    2.55  197.35   13.70   25.20   12.58   20.74  125.12    1.77    2.87    0.15    0.32    0.15    0.31    1.94  194.45   13.54   24.87   12.43   20.43  123.18    0.78    0.03    0.01    0.01    0.00    0.00    0.01    0.51    0.01    0.00    0.00    0.00    0.00    0.00    0.28    0.02    0.00    0.01    0.00    0.00    0.01    0.00
 2003 341    59      53  0.0017      41  0.0013  199.90    2.55  197.35   13.70   25.20   12.58   20.74  125.13    1.77    2.88    0.15    0.32    0.15    0.31    1.95  194.44   13.54   24.87   12.43   20.43  123.17    0.78    0.03    0.01    0.01    0.00    0.00    0.01    0.50    0.01    0.00    0.00    0.00    0.00    0.00    0.28    0.02    0.00    0.01    0.00    0.00    0.01    0.00
 2003 342    60      53  0.0017      41  0.0013  199.91    2.55  197.36   13.70   25.20   12.58   20.74  125.13    1.77    2.89    0.15    0.32    0.15    0.31    1.95  194.44   13.54   24.87   12.43   20.43  123.17    0.78    0.03    0.01    0.01    0.00    0.00    0.01    0.50    0.01    0.00    0.00    0.00    0.00    0.00    0.28    0.02    0.00    0.01    0.00    0.00    0.01    0.00
 2003 343    61      53  0.0017      41  0.0013  199.92    2.55  197.37   13.70   25.20   12.58   20.74  125.14    1.77    2.90    0.15    0.32    0.15    0.31    1.96  194.44   13.54   24.87   12.43   20.43  123.17    0.78    0.03    0.01    0.01    0.00    0.00    0.01    0.50    0.00    0.00    0.00    0.00    0.00    0.00    0.28    0.02    0.00    0.01    0.00    0.00    0.01    0.00
 2003 344    62      53  0.0017      41  0.0013  199.92    2.55  197.37   13.70   25.20   12.58   20.74  125.15    1.77    2.91    0.15    0.32    0.15    0.31    1.97  194.44   13.54   24.87   12.43   20.43  123.17    0.78    0.03    0.01    0.01    0.00    0.00    0.01    0.50    0.00    0.00    0.00    0.00    0.00    0.00    0.28    0.02    0.00    0.01    0.00    0.00    0.01    0.00
 2003 345    63      53  0.0017      41  0.0013  199.93    2.55  197.38   13.70   25.20   12.58   20.74  125.15    1.77    2.92    0.15    0.32    0.15    0.31    1.98  194.43   13.54   24.87   12.43   20.43  123.17    0.78    0.03    0.01    0.01    0.00    0.00    0.01    0.50    0.00    0.00    0.00    0.00    0.00    0.00    0.28    0.02    0.00    0.01    0.00    0.00    0.01    0.00
 2003 346    64      53  0.0017      41  0.0013  199.93    2.55  197.39   13.70   25.20   12.58   20.75  125.16    1.77    2.93    0.15    0.32    0.15    0.32    1.99  194.43   13.54   24.87   12.43   20.43  123.16    0.77    0.03    0.01    0.01    0.00    0.00    0.01    0.50    0.00    0.00    0.00    0.00    0.00    0.00    0.28    0.02    0.00    0.01    0.00    0.00    0.01    0.00
 2003 347    65      53  0.0017      41  0.0013  199.94    2.55  197.39   13.70   25.20   12.58   20.75  125.17    1.77    2.94    0.15    0.32    0.15    0.32    1.99  194.43   13.54   24.87   12.43   20.43  123.16    0.77    0.03    0.01    0.01    0.00    0.00    0.01    0.50    0.00    0.00    0.00    0.00    0.00    0.00    0.27    0.02    0.00    0.01    0.00    0.00    0.01    0.00
 2003 348    66      53  0.0017      41  0.0013  199.95    2.55  197.40   13.70   25.20   12.58   20.75  125.17    1.77    2.95    0.15    0.32    0.15    0.32    2.00  194.43   13.54   24.87   12.43   20.43  123.16    0.77    0.03    0.01    0.01    0.00    0.00    0.01    0.50    0.00    0.00    0.00    0.00    0.00    0.00    0.27    0.02    0.00    0.01    0.00    0.00    0.01    0.00
 2003 349    67      53  0.0017      41  0.0013  199.95    2.55  197.41   13.70   25.20   12.58   20.75  125.18    1.78    2.96    0.15    0.33    0.15    0.32    2.01  194.42   13.54   24.87   12.43   20.43  123.16    0.77    0.03    0.01    0.01    0.00    0.00    0.01    0.50    0.00    0.00    0.00    0.00    0.00    0.00    0.27    0.02    0.00    0.01    0.00    0.00    0.01    0.00
 2003 350    68      53  0.0017      41  0.0013  199.96    2.55  197.41   13.70   25.20   12.58   20.75  125.18    1.78    2.97    0.15    0.33    0.15    0.32    2.02  194.42   13.54   24.87   12.43   20.42  123.16    0.77    0.03    0.01    0.01    0.00    0.00    0.01    0.49    0.00    0.00    0.00    0.00    0.00    0.00    0.27    0.02    0.00    0.01    0.00    0.00    0.01    0.00
 2003 351    69      53  0.0017      41  0.0013  199.97    2.55  197.42   13.70   25.20   12.58   20.75  125.19    1.78    2.97    0.15    0.33    0.15    0.32    2.03  194.42   13.54   24.87   12.43   20.42  123.15    0.77    0.03    0.01    0.01    0.00    0.00    0.01    0.49    0.00    0.00    0.00    0.00    0.00    0.00    0.27    0.02    0.00    0.01    0.00    0.00    0.01    0.00
 2003 352    70      53  0.0017      41  0.0013  199.97    2.54  197.43   13.70   25.20   12.58   20.75  125.20    1.78    2.98    0.15    0.33    0.15    0.32    2.03  194.42   13.54   24.87   12.43   20.42  123.15    0.77    0.03    0.01    0.01    0.00    0.00    0.01    0.49    0.00    0.00    0.00    0.00    0.00    0.00    0.27    0.02    0.00    0.01    0.00    0.00    0.01    0.00
 2003 353    71      53  0.0017      41  0.0013  199.98    2.54  197.43   13.70   25.20   12.58   20.75  125.20    1.78    2.99    0.15    0.33    0.15    0.32    2.04  194.41   13.54   24.87   12.43   20.42  123.15    0.77    0.03    0.01    0.01    0.00    0.00    0.01    0.49    0.00    0.00    0.00    0.00    0.00    0.00    0.27    0.02    0.00    0.01    0.00    0.00    0.01    0.00
 2003 354    72      53  0.0017      41  0.0013  199.98    2.54  197.44   13.70   25.20   12.58   20.75  125.21    1.78    3.00    0.15    0.33    0.15    0.32    2.05  194.41   13.54   24.87   12.43   20.42  123.15    0.77    0.03    0.01    0.01    0.00    0.00    0.01    0.49    0.00    0.00    0.00    0.00    0.00    0.00    0.27    0.02    0.00    0.01    0.00    0.00    0.01    0.00
 2003 355    73      53  0.0017      41  0.0013  199.99    2.54  197.45   13.70   25.20   12.58   20.75  125.21    1.78    3.01    0.15    0.33    0.15    0.32    2.06  194.41   13.54   24.87   12.43   20.42  123.15    0.76    0.03    0.01    0.01    0.00    0.00    0.01    0.49    0.00    0.00    0.00    0.00    0.00    0.00    0.27    0.02    0.00    0.01    0.00    0.00    0.01    0.00
 2003 356    74      53  0.0017      41  0.0013  200.00    2.54  197.45   13.70   25.20   12.58   20.75  125.22    1.78    3.02    0.15    0.33    0.15    0.32    2.07  194.41   13.54   24.87   12.43   20.42  123.15    0.76    0.03    0.01    0.01    0.00    0.00    0.01    0.49    0.00    0.00    0.00    0.00    0.00    0.00    0.27    0.02    0.00    0.01    0.00    0.00    0.01    0.00
 2003 357    75      53  0.0017      41  0.0013  200.00    2.54  197.46   13.70   25.20   12.58   20.75  125.22    1.78    3.03    0.15    0.33    0.15    0.32    2.07  194.40   13.54   24.87   12.43   20.42  123.14    0.76    0.03    0.01    0.01    0.00    0.00    0.01    0.49    0.00    0.00    0.00    0.00    0.00    0.00    0.27    0.02    0.00    0.01    0.00    0.00    0.01    0.00
 2003 358    76      53  0.0017      41  0.0013  200.01    2.54  197.47   13.70   25.20   12.58   20.75  125.23    1.78    3.04    0.15    0.33    0.15    0.32    2.08  194.40   13.54   24.87   12.43   20.42  123.14    0.76    0.03    0.01    0.01    0.00    0.00    0.01    0.49    0.00    0.00    0.00    0.00    0.00    0.00    0.27    0.02    0.00    0.01    0.00    0.00    0.01    0.00
 2003 359    77      53  0.0017      41  0.0013  200.01    2.54  197.47   13.70   25.21   12.58   20.75  125.24    1.78    3.05    0.15    0.33    0.15    0.32    2.09  194.40   13.54   24.87   12.43   20.42  123.14    0.76    0.03    0.01    0.01    0.00    0.00    0.01    0.49    0.00    0.00    0.00    0.00    0.00    0.00    0.27    0.02    0.00    0.01    0.00    0.00    0.01    0.00
 2003 360    78      53  0.0017      41  0.0013  200.02    2.54  197.48   13.70   25.21   12.58   20.75  125.24    1.78    3.06    0.15    0.33    0.15    0.32    2.10  194.40   13.54   24.87   12.43   20.42  123.14    0.76    0.03    0.01    0.01    0.00    0.00    0.01    0.48    0.00    0.00    0.00    0.00    0.00    0.00    0.27    0.02    0.00    0.01    0.00    0.00    0.01    0.00
 2003 361    79      53  0.0017      41  0.0013  200.03    2.54  197.48   13.70   25.21   12.58   20.75  125.25    1.78    3.07    0.15    0.33    0.15    0.33    2.10  194.39   13.54   24.87   12.43   20.42  123.14    0.76    0.03    0.01    0.01    0.00    0.00    0.01    0.48    0.00    0.00    0.00    0.00    0.00    0.00    0.27    0.02    0.00    0.01    0.00    0.00    0.01    0.00
 2003 362    80      53  0.0017      41  0.0013  200.03    2.54  197.49   13.70   25.21   12.58   20.75  125.25    1.78    3.08    0.15    0.33    0.15    0.33    2.11  194.39   13.54   24.87   12.43   20.42  123.13    0.76    0.03    0.01    0.01    0.00    0.00    0.01    0.48    0.00    0.00    0.00    0.00    0.00    0.00    0.27    0.02    0.00    0.01    0.00    0.00    0.01    0.00
 2003 363    81      53  0.0017      41  0.0013  200.04    2.54  197.50   13.70   25.21   12.58   20.75  125.26    1.78    3.08    0.15    0.33    0.15    0.33    2.12  194.39   13.54   24.87   12.43   20.42  123.13    0.76    0.03    0.01    0.01    0.00    0.00    0.01    0.48    0.00    0.00    0.00    0.00    0.00    0.00    0.27    0.02    0.00    0.01    0.00    0.00    0.01    0.00
 2003 364    82      53  0.0017      41  0.0013  200.04    2.54  197.50   13.70   25.21   12.58   20.75  125.26    1.79    3.09    0.15    0.33    0.15    0.33    2.13  194.38   13.54   24.87   12.43   20.42  123.13    0.75    0.03    0.01    0.01    0.00    0.00    0.01    0.48    0.00    0.00    0.00    0.00    0.00    0.00    0.27    0.02    0.00    0.01    0.00    0.00    0.01    0.00
 2003 365    83      53  0.0017      41  0.0013  200.05    2.54  197.51   13.70   25.21   12.58   20.75  125.27    1.79    3.10    0.15    0.33    0.15    0.33    2.13  194.38   13.54   24.87   12.43   20.42  123.13    0.75    0.02    0.01    0.01    0.00    0.00    0.01    0.48    0.00    0.00    0.00    0.00    0.00    0.00    0.27    0.02    0.00    0.01    0.00    0.00    0.01    0.00
 2004 001    84      53  0.0017      41  0.0013  200.05    2.54  197.51   13.70   25.21   12.58   20.75  125.28    1.79    3.11    0.15    0.33    0.15    0.33    2.14  194.38   13.54   24.87   12.43   20.42  123.13    0.75    0.02    0.01    0.01    0.00    0.00    0.01    0.48    0.00    0.00    0.00    0.00    0.00    0.00    0.27    0.02    0.00    0.01    0.00    0.00    0.01    0.00
 2004 002    85      53  0.0017      41  0.0013  200.06    2.54  197.52   13.70   25.21   12.58   20.75  125.28    1.79    3.12    0.15    0.33    0.15    0.33    2.15  194.38   13.54   24.87   12.43   20.42  123.13    0.75    0.02    0.01    0.01    0.00    0.00    0.01    0.48    0.00    0.00    0.00    0.00    0.00    0.00    0.27    0.02    0.00    0.01    0.00    0.00    0.01    0.00
 2004 003    86      53  0.0017      41  0.0013  200.06    2.54  197.53   13.70   25.21   12.58   20.75  125.29    1.79    3.13    0.15    0.33    0.15    0.33    2.16  194.38   13.54   24.87   12.43   20.42  123.12    0.75    0.02    0.01    0.01    0.00    0.00    0.01    0.48    0.00    0.00    0.00    0.00    0.00    0.00    0.27    0.02    0.00    0.01    0.00    0.00    0.01    0.00
 2004 004    87      53  0.0017      41  0.0013  200.07    2.54  197.53   13.70   25.21   12.58   20.75  125.29    1.79    3.14    0.15    0.33    0.15    0.33    2.16  194.37   13.54   24.87   12.43   20.42  123.12    0.75    0.02    0.01    0.01    0.00    0.00    0.01    0.48    0.00    0.00    0.00    0.00    0.00    0.00    0.27    0.02    0.00    0.01    0.00    0.00    0.01    0.00
 2004 005    88      53  0.0017      41  0.0013  200.08    2.54  197.54   13.70   25.21   12.58   20.75  125.30    1.79    3.15    0.15    0.33    0.15    0.33    2.17  194.37   13.54   24.87   12.43   20.42  123.12    0.75    0.02    0.01    0.01    0.00    0.00    0.01    0.47    0.00    0.00    0.00    0.00    0.00    0.00    0.27    0.02    0.00    0.01    0.00    0.00    0.01    0.00
 2004 006    89      53  0.0017      41  0.0013  200.08    2.54  197.55   13.70   25.21   12.58   20.75  125.30    1.79    3.15    0.15    0.34    0.15    0.33    2.18  194.37   13.54   24.87   12.43   20.42  123.12    0.75    0.02    0.01    0.01    0.00    0.00    0.01    0.47    0.00    0.00    0.00    0.00    0.00    0.00    0.27    0.02    0.00    0.01    0.00    0.00    0.01    0.00
 2004 007    90      53  0.0017      41  0.0013  200.09    2.54  197.55   13.70   25.21   12.58   20.75  125.31    1.79    3.16    0.15    0.34    0.15    0.33    2.19  194.36   13.54   24.87   12.43   20.42  123.12    0.75    0.02    0.01    0.01    0.00    0.00    0.01    0.47    0.00    0.00    0.00    0.00    0.00    0.00    0.27    0.02    0.00    0.01    0.00    0.00    0.01    0.00
 2004 008    91      53  0.0017      41  0.0013  200.09    2.54  197.56   13.70   25.21   12.58   20.75  125.32    1.79    3.17    0.15    0.34    0.15    0.33    2.20  194.36   13.54   24.87   12.42   20.42  123.11    0.74    0.02    0.01    0.01    0.00    0.00    0.01    0.47    0.00    0.00    0.00    0.00    0.00    0.00    0.27    0.02    0.00    0.01    0.00    0.00    0.01    0.00
 2004 009    92      53  0.0017      41  0.0013  200.10    2.53  197.57   13.70   25.21   12.58   20.75  125.32    1.79    3.18    0.15    0.34    0.15    0.33    2.20  194.36   13.54   24.87   12.42   20.42  123.11    0.74    0.02    0.01    0.01    0.00    0.00    0.01    0.47    0.00    0.00    0.00    0.00    0.00    0.00    0.27    0.02    0.00    0.01    0.00    0.00    0.01    0.00
 2004 010    93      53  0.0017      41  0.0013  200.11    2.53  197.57   13.70   25.21   12.58   20.75  125.33    1.79    3.19    0.15    0.34    0.15    0.33    2.21  194.36   13.54   24.87   12.42   20.42  123.11    0.74    0.02    0.01    0.01    0.00    0.00    0.01    0.47    0.00    0.00    0.00    0.00    0.00    0.00    0.27    0.02    0.00    0.01    0.00    0.00    0.01    0.00
 2004 011    94      53  0.0017      41  0.0013  200.11    2.53  197.58   13.70   25.21   12.58   20.75  125.33    1.79    3.20    0.15    0.34    0.15    0.33    2.22  194.35   13.54   24.87   12.42   20.42  123.11    0.74    0.02    0.01    0.01    0.00    0.00    0.01    0.47    0.00    0.00    0.00    0.00    0.00    0.00    0.27    0.02    0.00    0.01    0.00    0.00    0.01    0.00
 2004 012    95      53  0.0017      41  0.0013  200.12    2.53  197.58   13.70   25.21   12.58   20.75  125.34    1.79    3.21    0.15    0.34    0.15    0.34    2.23  194.35   13.54   24.87   12.42   20.42  123.11    0.74    0.02    0.01    0.01    0.00    0.00    0.01    0.47    0.00    0.00    0.00    0.00    0.00    0.00    0.27    0.02    0.00    0.01    0.00    0.00    0.01    0.00
 2004 013    96      53  0.0017      41  0.0013  200.12    2.53  197.59   13.70   25.21   12.58   20.75  125.35    1.79    3.22    0.15    0.34    0.16    0.34    2.24  194.35   13.54   24.86   12.42   20.42  123.10    0.74    0.02    0.01    0.01    0.00    0.00    0.01    0.47    0.00    0.00    0.00    0.00    0.00    0.00    0.27    0.02    0.00    0.01    0.00    0.00    0.01    0.00
 2004 014    97      53  0.0017      41  0.0013  200.13    2.53  197.60   13.70   25.21   12.58   20.75  125.35    1.79    3.23    0.15    0.34    0.16    0.34    2.24  194.35   13.54   24.86   12.42   20.41  123.10    0.74    0.02    0.01    0.01    0.00    0.00    0.01    0.46    0.00    0.00    0.00    0.00    0.00    0.00    0.27    0.02    0.00    0.01    0.00    0.00    0.01    0.00
 2004 015    98      53  0.0017      41  0.0013  200.14    2.53  197.60   13.70   25.21   12.58   20.75  125.36    1.79    3.24    0.15    0.34    0.16    0.34    2.25  194.34   13.54   24.86   12.42   20.41  123.10    0.74    0.02    0.01    0.01    0.00    0.00    0.01    0.46    0.00    0.00    0.00    0.00    0.00    0.00    0.27    0.02    0.00    0.01    0.00    0.00    0.01    0.00
 2004 016    99      53  0.0017      41  0.0013  200.14    2.53  197.61   13.70   25.21   12.58   20.75  125.36    1.80    3.25    0.15    0.34    0.16    0.34    2.26  194.34   13.54   24.86   12.42   20.41  123.10    0.74    0.02    0.01    0.01    0.00    0.00    0.01    0.46    0.00    0.00    0.00    0.00    0.00    0.00    0.27    0.02    0.00    0.01    0.00    0.00    0.01    0.00
 2004 017   100      53  0.0017      41  0.0013  200.15    2.53  197.62   13.70   25.21   12.58   20.75  125.37    1.80    3.26    0.15    0.34    0.16    0.34    2.27  194.34   13.54   24.86   12.42   20.41  123.10    0.73    0.02    0.01    0.01    0.00    0.00    0.01    0.46    0.00    0.00    0.00    0.00    0.00    0.00    0.27    0.02    0.00    0.01    0.00    0.00    0.01    0.00
 2004 018   101      53  0.0017      41  0.0013  200.15    2.53  197.62   13.70   25.21   12.58   20.76  125.37    1.80    3.26    0.15    0.34    0.16    0.34    2.28  194.33   13.54   24.86   12.42   20.41  123.09    0.73    0.02    0.01    0.01    0.00    0.00    0.01    0.46    0.00    0.00    0.00    0.00    0.00    0.00    0.27    0.02    0.00    0.01    0.00    0.00    0.01    0.00
 2004 019   102      53  0.0017      41  0.0013  200.16    2.53  197.63   13.70   25.21   12.58   20.76  125.38    1.80    3.27    0.15    0.34    0.16    0.34    2.28  194.33   13.54   24.86   12.42   20.41  123.09    0.73    0.02    0.01    0.01    0.00    0.00    0.01    0.46    0.00    0.00    0.00    0.00    0.00    0.00    0.27    0.02    0.00    0.01    0.00    0.00    0.01    0.00
 2004 020   103      53  0.0017      41  0.0013  200.16    2.53  197.63   13.70   25.21   12.58   20.76  125.39    1.80    3.28    0.15    0.34    0.16    0.34    2.29  194.33   13.54   24.86   12.42   20.41  123.09    0.73    0.02    0.01    0.01    0.00    0.00    0.01    0.46    0.00    0.00    0.00    0.00    0.00    0.00    0.27    0.02    0.00    0.01    0.00    0.00    0.01    0.00
 2004 021   104      53  0.0017      41  0.0013  200.16    2.52  197.64   13.70   25.21   12.58   20.76  125.39    1.81    3.29    0.16    0.34    0.16    0.34    2.30  194.33   13.54   24.86   12.42   20.41  123.09    0.70    0.02    0.01    0.01    0.00    0.00    0.01    0.43    0.00    0.00    0.00    0.00    0.00    0.00    0.27    0.02    0.00    0.01    0.00    0.00    0.01    0.00
 2004 022   105      53  0.0017      41  0.0013  200.16    2.51  197.65   13.71   25.21   12.58   20.76  125.40    1.83    3.30    0.16    0.34    0.16    0.34    2.31  194.32   13.54   24.86   12.42   20.41  123.09    0.67    0.02    0.01    0.01    0.00    0.00    0.01    0.40    0.00    0.00    0.00    0.00    0.00    0.00    0.27    0.02    0.00    0.01    0.00    0.00    0.01    0.00
 2004 023   106      53  0.0017      41  0.0013  200.15    2.50  197.66   13.71   25.21   12.58   20.76  125.40    1.85    3.31    0.16    0.34    0.16    0.34    2.32  194.32   13.55   24.86   12.42   20.41  123.08    0.65    0.02    0.01    0.01    0.00    0.00    0.01    0.38    0.00    0.00    0.00    0.00    0.00    0.00    0.27    0.02    0.00    0.01    0.00    0.00    0.01    0.00
 2004 024   107      53  0.0017      41  0.0013  200.15    2.49  197.67   13.71   25.21   12.58   20.76  125.41    1.86    3.32    0.16    0.34    0.16    0.34    2.32  194.32   13.55   24.86   12.42   20.41  123.08    0.63    0.02    0.01    0.01    0.00    0.00    0.01    0.36    0.00    0.00    0.00    0.00    0.00    0.00    0.27    0.02    0.00    0.00    0.00    0.00    0.01    0.00
 2004 025   108      53  0.0017      41  0.0013  200.16    2.48  197.68   13.71   25.21   12.58   20.76  125.42    1.87    3.33    0.16    0.34    0.16    0.34    2.33  194.32   13.55   24.86   12.42   20.41  123.08    0.61    0.02    0.01    0.01    0.00    0.00    0.01    0.35    0.00    0.00    0.00    0.00    0.00    0.00    0.27    0.02    0.00    0.00    0.00    0.00    0.01    0.00
 2004 026   109      53  0.0017      41  0.0013  200.16    2.47  197.68   13.71   25.21   12.58   20.76  125.42    1.87    3.34    0.16    0.34    0.16    0.34    2.34  194.32   13.55   24.86   12.42   20.41  123.08    0.60    0.02    0.01    0.00    0.00    0.00    0.01    0.34    0.00    0.00    0.00    0.00    0.00    0.00    0.27    0.02    0.00    0.00    0.00    0.00    0.01    0.00
 2004 027   110      53  0.0017      41  0.0013  200.16    2.47  197.69   13.71   25.21   12.58   20.76  125.43    1.88    3.35    0.16    0.35    0.16    0.35    2.35  194.32   13.55   24.86   12.42   20.41  123.08    0.59    0.02    0.01    0.00    0.00    0.00    0.01    0.33    0.00    0.00    0.00    0.00    0.00    0.00    0.27    0.02    0.00    0.00    0.00    0.00    0.01    0.00
 2004 028   111      53  0.0017      42  0.0013  200.16    2.47  197.70   13.71   25.21   12.58   20.76  125.43    1.88    3.36    0.16    0.35    0.16    0.35    2.35  194.31   13.55   24.86   12.42   20.41  123.07    0.58    0.02    0.01    0.00    0.00    0.00    0.01    0.32    0.00    0.00    0.00    0.00    0.00    0.00    0.26    0.02    0.00    0.00    0.00    0.00    0.01    0.00
 2004 029   112      53  0.0017      42  0.0013  200.17    2.46  197.71   13.72   25.21   12.58   20.76  125.44    1.89    3.37    0.16    0.35    0.16    0.35    2.36  194.31   13.55   24.86   12.42   20.41  123.07    0.57    0.02    0.01    0.00    0.00    0.00    0.01    0.31    0.00    0.00    0.00    0.00    0.00    0.00    0.26    0.02    0.00    0.00    0.00    0.00    0.01    0.00
 2004 030   113      53  0.0017      42  0.0013  200.17    2.46  197.71   13.72   25.21   12.58   20.76  125.45    1.89    3.38    0.16    0.35    0.16    0.35    2.37  194.31   13.55   24.86   12.42   20.41  123.07    0.56    0.02    0.01    0.00    0.00    0.00    0.01    0.30    0.00    0.00    0.00    0.00    0.00    0.00    0.26    0.02    0.00    0.00    0.00    0.00    0.01    0.00
 2004 031   114      53  0.0017      42  0.0013  200.18    2.46  197.72   13.72   25.21   12.58   20.76  125.45    1.90    3.39    0.16    0.35    0.16    0.35    2.38  194.31   13.55   24.86   12.42   20.41  123.07    0.56    0.02    0.01    0.00    0.00    0.00    0.01    0.30    0.00    0.00    0.00    0.00    0.00    0.00    0.26    0.02    0.00    0.00    0.00    0.00    0.01    0.00
 2004 032   115      53  0.0017      42  0.0013  200.18    2.45  197.73   13.72   25.21   12.58   20.76  125.46    1.90    3.40    0.16    0.35    0.16    0.35    2.39  194.30   13.55   24.86   12.42   20.41  123.06    0.55    0.02    0.01    0.00    0.00    0.00    0.01    0.29    0.00    0.00    0.00    0.00    0.00    0.00    0.26    0.02    0.00    0.00    0.00    0.00    0.01    0.00
 2004 033   116      53  0.0017      42  0.0013  200.19    2.45  197.74   13.72   25.21   12.58   20.76  125.46    1.90    3.41    0.16    0.35    0.16    0.35    2.40  194.30   13.55   24.86   12.42   20.41  123.06    0.55    0.02    0.01    0.00    0.00    0.00    0.01    0.29    0.00    0.00    0.00    0.00    0.00    0.00    0.26    0.02    0.00    0.00    0.00    0.00    0.01    0.00
 2004 034   117      53  0.0017      42  0.0013  200.19    2.45  197.74   13.72   25.21   12.58   20.76  125.47    1.90    3.42    0.16    0.35    0.16    0.35    2.41  194.30   13.55   24.86   12.42   20.41  123.06    0.55    0.02    0.01    0.00    0.00    0.00    0.01    0.28    0.00    0.00    0.00    0.00    0.00    0.00    0.26    0.02    0.00    0.00    0.00    0.00    0.01    0.00
 2004 035   118      53  0.0017      42  0.0013  200.20    2.45  197.75   13.72   25.21   12.58   20.76  125.48    1.90    3.44    0.16    0.35    0.16    0.35    2.41  194.29   13.56   24.86   12.42   20.41  123.06    0.55    0.02    0.01    0.00    0.00    0.00    0.01    0.28    0.00    0.00    0.00    0.00    0.00    0.00    0.26    0.02    0.00    0.00    0.00    0.00    0.01    0.00
 2004 036   119      53  0.0017      42  0.0013  200.21    2.45  197.76   13.72   25.21   12.58   20.76  125.48    1.90    3.45    0.16    0.35    0.16    0.35    2.42  194.29   13.56   24.86   12.42   20.41  123.06    0.54    0.02    0.01    0.00    0.00    0.00    0.01    0.28    0.00    0.00    0.00    0.00    0.00    0.00    0.26    0.02    0.00    0.00    0.00    0.00    0.01    0.00
 2004 037   120      53  0.0017      42  0.0013  200.21    2.45  197.76   13.72   25.21   12.58   20.76  125.49    1.91    3.45    0.16    0.35    0.16    0.35    2.43  194.29   13.56   24.86   12.42   20.41  123.05    0.54    0.02    0.01    0.00    0.00    0.00    0.01    0.28    0.00    0.00    0.00    0.00    0.00    0.00    0.26    0.02    0.00    0.00    0.00    0.00    0.01    0.00
 2004 038   121      53  0.0017      42  0.0013  200.22    2.45  197.77   13.72   25.21   12.58   20.76  125.49    1.91    3.46    0.16    0.35    0.16    0.35    2.44  194.29   13.56   24.86   12.42   20.41  123.05    0.54    0.02    0.01    0.00    0.00    0.00    0.01    0.28    0.00    0.00    0.00    0.00    0.00    0.00    0.26    0.02    0.00    0.00    0.00    0.00    0.01    0.00
 2004 039   122      53  0.0017      42  0.0013  200.22    2.45  197.77   13.72   25.21   12.58   20.76  125.50    1.91    3.47    0.16    0.35    0.16    0.35    2.44  194.28   13.56   24.86   12.42   20.40  123.05    0.54    0.02    0.01    0.00    0.00    0.00    0.01    0.28    0.00    0.00    0.00    0.00    0.00    0.00    0.26    0.02    0.00    0.00    0.00    0.00    0.01    0.00
 2004 040   123      53  0.0017      42  0.0013  200.23    2.45  197.78   13.72   25.21   12.58   20.76  125.50    1.91    3.48    0.16    0.36    0.16    0.35    2.45  194.28   13.56   24.86   12.42   20.40  123.05    0.54    0.02    0.01    0.00    0.00    0.00    0.01    0.28    0.00    0.00    0.00    0.00    0.00    0.00    0.26    0.02    0.00    0.00    0.00    0.00    0.01    0.00
 2004 041   124      53  0.0017      42  0.0013  200.23    2.45  197.79   13.72   25.22   12.58   20.76  125.51    1.91    3.49    0.16    0.36    0.16    0.35    2.46  194.28   13.56   24.85   12.42   20.40  123.05    0.54    0.02    0.01    0.00    0.00    0.00    0.01    0.28    0.00    0.00    0.00    0.00    0.00    0.00    0.26    0.02    0.00    0.00    0.00    0.00    0.01    0.00
 2004 042   125      53  0.0017      42  0.0013  200.24    2.45  197.79   13.72   25.22   12.58   20.76  125.52    1.91    3.50    0.16    0.36    0.16    0.36    2.47  194.27   13.56   24.85   12.42   20.40  123.04    0.54    0.02    0.01    0.00    0.00    0.00    0.00    0.28    0.00    0.00    0.00    0.00    0.00    0.00    0.26    0.02    0.00    0.00    0.00    0.00    0.00    0.00
 2004 043   126      53  0.0017      42  0.0013  200.25    2.45  197.80   13.72   25.22   12.58   20.76  125.52    1.91    3.51    0.16    0.36    0.16    0.36    2.47  194.27   13.56   24.85   12.42   20.40  123.04    0.54    0.02    0.01    0.00    0.00    0.00    0.00    0.28    0.00    0.00    0.00    0.00    0.00    0.00    0.26    0.02    0.00    0.00    0.00    0.00    0.00    0.00
 2004 044   127      53  0.0017      42  0.0013  200.25    2.45  197.81   13.72   25.22   12.58   20.76  125.53    1.91    3.52    0.16    0.36    0.16    0.36    2.48  194.27   13.56   24.85   12.42   20.40  123.04    0.54    0.02    0.01    0.00    0.00    0.00    0.00    0.28    0.00    0.00    0.00    0.00    0.00    0.00    0.26    0.02    0.00    0.00    0.00    0.00    0.00    0.00
 2004 045   128      53  0.0017      42  0.0013  200.26    2.45  197.81   13.72   25.22   12.58   20.76  125.53    1.91    3.53    0.16    0.36    0.16    0.36    2.49  194.26   13.56   24.85   12.42   20.40  123.04    0.54    0.02    0.01    0.00    0.00    0.00    0.00    0.28    0.00    0.00    0.00    0.00    0.00    0.00    0.26    0.02    0.00    0.00    0.00    0.00    0.00    0.00
 2004 046   129      53  0.0017      42  0.0013  200.26    2.45  197.82   13.72   25.22   12.58   20.76  125.54    1.91    3.54    0.16    0.36    0.16    0.36    2.50  194.26   13.56   24.85   12.42   20.40  123.03    0.54    0.02    0.01    0.00    0.00    0.00    0.00    0.28    0.00    0.00    0.00    0.00    0.00    0.00    0.26    0.02    0.00    0.00    0.00    0.00    0.00    0.00
 2004 047   130      53  0.0017      42  0.0013  200.27    2.45  197.83   13.72   25.22   12.58   20.76  125.55    1.91    3.55    0.16    0.36    0.16    0.36    2.51  194.26   13.56   24.85   12.42   20.40  123.03    0.54    0.02    0.01    0.00    0.00    0.00    0.00    0.28    0.00    0.00    0.00    0.00    0.00    0.00    0.26    0.02    0.00    0.00    0.00    0.00    0.00    0.00
 2004 048   131      53  0.0017      42  0.0013  200.28    2.45  197.83   13.72   25.22   12.58   20.76  125.55    1.91    3.56    0.16    0.36    0.16    0.36    2.52  194.25   13.56   24.85   12.42   20.40  123.03    0.54    0.02    0.01    0.00    0.00    0.00    0.00    0.27    0.00    0.00    0.00    0.00    0.00    0.00    0.26    0.02    0.00    0.00    0.00    0.00    0.00    0.00
 2004 049   132      53  0.0017      42  0.0013  200.28    2.45  197.84   13.72   25.22   12.58   20.76  125.56    1.91    3.57    0.16    0.36    0.16    0.36    2.53  194.25   13.56   24.85   12.41   20.40  123.03    0.54    0.02    0.01    0.00    0.00    0.00    0.00    0.27    0.00    0.00    0.00    0.00    0.00    0.00    0.26    0.02    0.00    0.00    0.00    0.00    0.00    0.00
 2004 050   133      53  0.0017      42  0.0013  200.29    2.44  197.85   13.72   25.22   12.58   20.76  125.56    1.91    3.58    0.16    0.36    0.17    0.36    2.53  194.25   13.56   24.85   12.41   20.40  123.03    0.53    0.02    0.01    0.00    0.00    0.00    0.00    0.27    0.00    0.00    0.00    0.00    0.00    0.00    0.26    0.02    0.00    0.00    0.00    0.00    0.00    0.00
 2004 051   134      53  0.0017      42  0.0013  200.30    2.44  197.85   13.72   25.22   12.58   20.76  125.57    1.91    3.59    0.16    0.36    0.17    0.36    2.54  194.24   13.56   24.85   12.41   20.40  123.02    0.53    0.02    0.01    0.00    0.00    0.00    0.00    0.27    0.00    0.00    0.00    0.00    0.00    0.00    0.26    0.02    0.00    0.00    0.00    0.00    0.00    0.00
 2004 052   135      53  0.0017      42  0.0013  200.30    2.44  197.86   13.72   25.22   12.58   20.76  125.58    1.91    3.60    0.16    0.36    0.17    0.36    2.55  194.24   13.56   24.85   12.41   20.40  123.02    0.53    0.02    0.01    0.00    0.00    0.00    0.00    0.27    0.00    0.00    0.00    0.00    0.00    0.00    0.26    0.02    0.00    0.00    0.00    0.00    0.00    0.00
 2004 053   136      53  0.0017      42  0.0013  200.31    2.44  197.87   13.72   25.22   12.58   20.76  125.58    1.91    3.61    0.16    0.36    0.17    0.36    2.56  194.24   13.56   24.85   12.41   20.40  123.02    0.53    0.02    0.01    0.00    0.00    0.00    0.00    0.27    0.00    0.00    0.00    0.00    0.00    0.00    0.26    0.02    0.00    0.00    0.00    0.00    0.00    0.00
 2004 054   137      53  0.0017      42  0.0013  200.32    2.44  197.87   13.72   25.22   12.58   20.76  125.59    1.91    3.62    0.16    0.36    0.17    0.36    2.57  194.23   13.56   24.85   12.41   20.40  123.02    0.53    0.02    0.01    0.00    0.00    0.00    0.00    0.27    0.00    0.00    0.00    0.00    0.00    0.00    0.26    0.02    0.00    0.00    0.00    0.00    0.00    0.00
 2004 055   138      53  0.0017      42  0.0013  200.32    2.44  197.88   13.72   25.22   12.58   20.76  125.60    1.91    3.63    0.16    0.36    0.17    0.36    2.58  194.23   13.56   24.85   12.41   20.40  123.01    0.53    0.02    0.01    0.00    0.00    0.00    0.00    0.27    0.00    0.00    0.00    0.00    0.00    0.00    0.26    0.02    0.00    0.00    0.00    0.00    0.00    0.00
 2004 056   139      53  0.0017      42  0.0013  200.33    2.44  197.89   13.72   25.22   12.58   20.77  125.60    1.91    3.64    0.16    0.37    0.17    0.37    2.59  194.23   13.56   24.85   12.41   20.40  123.01    0.53    0.02    0.01    0.00    0.00    0.00    0.00    0.27    0.00    0.00    0.00    0.00    0.00    0.00    0.26    0.02    0.00    0.00    0.00    0.00    0.00    0.00
 2004 057   140      53  0.0017      42  0.0013  200.34    2.44  197.90   13.72   25.22   12.58   20.77  125.61    1.91    3.65    0.16    0.37    0.17    0.37    2.60  194.22   13.56   24.85   12.41   20.40  123.01    0.53    0.02    0.01    0.00    0.00    0.00    0.00    0.27    0.00    0.00    0.00    0.00    0.00    0.00    0.26    0.02    0.00    0.00    0.00    0.00    0.00    0.00
 2004 058   141      53  0.0017      42  0.0013  200.34    2.44  197.90   13.72   25.22   12.58   20.77  125.62    1.91    3.66    0.16    0.37    0.17    0.37    2.60  194.22   13.56   24.85   12.41   20.40  123.01    0.53    0.02    0.01    0.00    0.00    0.00    0.00    0.27    0.00    0.00    0.00    0.00    0.00    0.00    0.26    0.02    0.00    0.00    0.00    0.00    0.00    0.00
 2004 059   142      53  0.0017      42  0.0013  200.35    2.44  197.91   13.72   25.22   12.58   20.77  125.62    1.91    3.67    0.16    0.37    0.17    0.37    2.61  194.22   13.56   24.85   12.41   20.40  123.00    0.53    0.02    0.01    0.00    0.00    0.00    0.00    0.27    0.00    0.00    0.00    0.00    0.00    0.00    0.26    0.02    0.00    0.00    0.00    0.00    0.00    0.00
 2004 060   143      53  0.0017      42  0.0013  200.35    2.44  197.92   13.72   25.22   12.58   20.77  125.63    1.93    3.69    0.16    0.37    0.17    0.37    2.62  194.21   13.56   24.85   12.41   20.40  123.00    0.51    0.02    0.01    0.00    0.00    0.00    0.00    0.25    0.00    0.00    0.00    0.00    0.00    0.00    0.26    0.02    0.00    0.00    0.00    0.00    0.00    0.00
 2004 061   144      53  0.0017      42  0.0013  200.35    2.43  197.93   13.72   25.22   12.58   20.77  125.63    1.94    3.70    0.16    0.37    0.17    0.37    2.63  194.21   13.56   24.85   12.41   20.40  123.00    0.49    0.02    0.01    0.00    0.00    0.00    0.00    0.23    0.00    0.00    0.00    0.00    0.00    0.00    0.26    0.02    0.00    0.00    0.00    0.00    0.00    0.00
 2004 062   145      53  0.0017      42  0.0013  200.35    2.42  197.93   13.73   25.22   12.58   20.77  125.64    1.95    3.71    0.16    0.37    0.17    0.37    2.64  194.21   13.56   24.85   12.41   20.39  123.00    0.47    0.02    0.01    0.00    0.00    0.00    0.00    0.21    0.00    0.00    0.00    0.00    0.00    0.00    0.26    0.02    0.00    0.00    0.00    0.00    0.00    0.00
 2004 063   146      53  0.0017      42  0.0013  200.35    2.41  197.94   13.73   25.22   12.58   20.77  125.65    1.96    3.72    0.16    0.37    0.17    0.37    2.65  194.21   13.56   24.85   12.41   20.39  123.00    0.45    0.02    0.01    0.00    0.00    0.00    0.00    0.20    0.00    0.00    0.00    0.00    0.00    0.00    0.25    0.02    0.00    0.00    0.00    0.00    0.00    0.00
 2004 064   147      53  0.0017      42  0.0013  200.36    2.41  197.95   13.73   25.22   12.58   20.77  125.65    1.97    3.73    0.16    0.37    0.17    0.37    2.65  194.21   13.57   24.85   12.41   20.39  122.99    0.44    0.02    0.00    0.00    0.00    0.00    0.00    0.19    0.00    0.00    0.00    0.00    0.00    0.00    0.25    0.02    0.00    0.00    0.00    0.00    0.00    0.00
 2004 065   148      53  0.0017      42  0.0013  200.36    2.40  197.96   13.73   25.22   12.58   20.77  125.65    1.97    3.73    0.16    0.37    0.17    0.37    2.66  194.21   13.57   24.84   12.41   20.39  122.99    0.43    0.02    0.00    0.00    0.00    0.00    0.00    0.18    0.00    0.00    0.00    0.00    0.00    0.00    0.25    0.02    0.00    0.00    0.00    0.00    0.00    0.00
 2004 066   149      53  0.0017      42  0.0013  200.36    2.40  197.96   13.73   25.22   12.58   20.77  125.66    1.97    3.74    0.16    0.37    0.17    0.37    2.66  194.21   13.57   24.84   12.41   20.39  122.99    0.42    0.02    0.00    0.00    0.00    0.00    0.00    0.17    0.00    0.00    0.00    0.00    0.00    0.00    0.25    0.02    0.00    0.00    0.00    0.00    0.00    0.00
 2004 067   150      54  0.0017      42  0.0013  200.36    2.40  197.97   13.73   25.22   12.58   20.77  125.66    1.98    3.75    0.16    0.37    0.17    0.37    2.67  194.20   13.57   24.84   12.41   20.39  122.99    0.42    0.02    0.00    0.00    0.00    0.00    0.00    0.17    0.00    0.00    0.00    0.00    0.00    0.00    0.25    0.02    0.00    0.00    0.00    0.00    0.00    0.00
 2004 068   151      54  0.0017      42  0.0013  200.37    2.39  197.97   13.74   25.22   12.58   20.77  125.67    1.98    3.76    0.16    0.38    0.17    0.37    2.68  194.20   13.57   24.84   12.41   20.39  122.99    0.41    0.02    0.00    0.00    0.00    0.00    0.00    0.16    0.00    0.00    0.00    0.00    0.00    0.00    0.25    0.02    0.00    0.00    0.00    0.00    0.00    0.00
 2004 069   152      54  0.0017      42  0.0013  200.37    2.39  197.98   13.74   25.22   12.58   20.77  125.67    1.98    3.76    0.16    0.38    0.17    0.37    2.68  194.20   13.57   24.84   12.41   20.39  122.99    0.41    0.02    0.00    0.00    0.00    0.00    0.00    0.16    0.00    0.00    0.00    0.00    0.00    0.00    0.25    0.02    0.00    0.00    0.00    0.00    0.00    0.00
 2004 070   153      54  0.0017      42  0.0013  200.38    2.39  197.99   13.74   25.22   12.58   20.77  125.68    1.99    3.77    0.16    0.38    0.17    0.38    2.69  194.20   13.57   24.84   12.41   20.39  122.98    0.40    0.02    0.00    0.00    0.00    0.00    0.00    0.16    0.00    0.00    0.00    0.00    0.00    0.00    0.25    0.01    0.00    0.00    0.00    0.00    0.00    0.00
 2004 071   154      54  0.0017      42  0.0013  200.38    2.39  197.99   13.74   25.22   12.58   20.77  125.68    1.99    3.78    0.16    0.38    0.17    0.38    2.69  194.20   13.57   24.84   12.41   20.39  122.98    0.40    0.02    0.00    0.00    0.00    0.00    0.00    0.15    0.00    0.00    0.00    0.00    0.00    0.00    0.25    0.01    0.00    0.00    0.00    0.00    0.00    0.00
 2004 072   155      54  0.0017      42  0.0013  200.39    2.39  198.00   13.74   25.22   12.58   20.77  125.69    1.99    3.79    0.16    0.38    0.17    0.38    2.70  194.19   13.57   24.84   12.41   20.39  122.98    0.40    0.02    0.00    0.00    0.00    0.00    0.00    0.15    0.00    0.00    0.00    0.00    0.00    0.00    0.25    0.01    0.00    0.00    0.00    0.00    0.00    0.00
 2004 073   156      54  0.0017      42  0.0013  200.39    2.39  198.00   13.74   25.22   12.58   20.77  125.69    1.99    3.80    0.16    0.38    0.17    0.38    2.71  194.19   13.57   24.84   12.41   20.39  122.98    0.40    0.02    0.00    0.00    0.00    0.00    0.00    0.15    0.00    0.00    0.00    0.00    0.00    0.00    0.25    0.01    0.00    0.00    0.00    0.00    0.00    0.00
 2004 074   157      54  0.0017      42  0.0013  200.40    2.39  198.01   13.74   25.22   12.58   20.77  125.70    1.99    3.81    0.16    0.38    0.17    0.38    2.72  194.19   13.57   24.84   12.41   20.39  122.98    0.39    0.02    0.00    0.00    0.00    0.00    0.00    0.15    0.00    0.00    0.00    0.00    0.00    0.00    0.25    0.01    0.00    0.00    0.00    0.00    0.00    0.00
 2004 075   158      54  0.0017      42  0.0013  200.40    2.38  198.02   13.74   25.22   12.58   20.77  125.70    1.99    3.82    0.16    0.38    0.17    0.38    2.72  194.18   13.57   24.84   12.41   20.39  122.97    0.39    0.02    0.00    0.00    0.00    0.00    0.00    0.14    0.00    0.00    0.00    0.00    0.00    0.00    0.25    0.01    0.00    0.00    0.00    0.00    0.00    0.00
 2004 076   159      54  0.0017      42  0.0013  200.41    2.38  198.02   13.74   25.22   12.58   20.77  125.71    1.99    3.83    0.16    0.38    0.17    0.38    2.73  194.18   13.57   24.84   12.41   20.39  122.97    0.39    0.02    0.00    0.00    0.00    0.00    0.00    0.14    0.00    0.00    0.00    0.00    0.00    0.00    0.25    0.01    0.00    0.00    0.00    0.00    0.00    0.00
 2004 077   160      54  0.0017      42  0.0013  200.41    2.38  198.03   13.74   25.22   12.58   20.77  125.71    1.99    3.84    0.16    0.38    0.17    0.38    2.74  194.18   13.57   24.84   12.41   20.39  122.97    0.39    0.01    0.00    0.00    0.00    0.00    0.00    0.14    0.00    0.00    0.00    0.00    0.00    0.00    0.25    0.01    0.00    0.00    0.00    0.00    0.00    0.00
 2004 078   161      54  0.0017      42  0.0013  200.42    2.38  198.03   13.74   25.23   12.58   20.77  125.72    1.99    3.85    0.16    0.38    0.17    0.38    2.74  194.17   13.57   24.84   12.41   20.39  122.97    0.39    0.01    0.00    0.00    0.00    0.00    0.00    0.14    0.00    0.00    0.00    0.00    0.00    0.00    0.25    0.01    0.00    0.00    0.00    0.00    0.00    0.00
 2004 079   162      54  0.0017      42  0.0013  200.42    2.38  198.04   13.74   25.23   12.58   20.77  125.72    1.99    3.85    0.16    0.38    0.17    0.38    2.75  194.17   13.57   24.84   12.41   20.39  122.97    0.39    0.01    0.00    0.00    0.00    0.00    0.00    0.14    0.00    0.00    0.00    0.00    0.00    0.00    0.25    0.01    0.00    0.00    0.00    0.00    0.00    0.00
 2004 080   163      54  0.0017      42  0.0013  200.43    2.38  198.05   13.74   25.23   12.58   20.77  125.73    1.99    3.86    0.16    0.38    0.17    0.38    2.76  194.17   13.57   24.84   12.41   20.39  122.96    0.39    0.01    0.00    0.00    0.00    0.00    0.00    0.14    0.00    0.00    0.00    0.00    0.00    0.00    0.25    0.01    0.00    0.00    0.00    0.00    0.00    0.00
 2004 081   164      54  0.0017      42  0.0013  200.44    2.38  198.05   13.74   25.23   12.58   20.77  125.73    1.99    3.87    0.16    0.39    0.17    0.38    2.77  194.16   13.57   24.84   12.41   20.39  122.96    0.39    0.01    0.00    0.00    0.00    0.00    0.00    0.14    0.00    0.00    0.00    0.00    0.00    0.00    0.25    0.01    0.00    0.00    0.00    0.00    0.00    0.00
 2004 082   165      54  0.0017      42  0.0013  200.44    2.38  198.06   13.74   25.23   12.58   20.77  125.74    1.99    3.88    0.16    0.39    0.17    0.39    2.77  194.16   13.57   24.84   12.41   20.39  122.96    0.39    0.01    0.00    0.00    0.00    0.00    0.00    0.14    0.00    0.00    0.00    0.00    0.00    0.00    0.25    0.01    0.00    0.00    0.00    0.00    0.00    0.00
 2004 083   166      54  0.0017      42  0.0013  200.45    2.38  198.06   13.74   25.23   12.58   20.77  125.74    1.99    3.89    0.16    0.39    0.18    0.39    2.78  194.16   13.57   24.84   12.41   20.39  122.96    0.39    0.01    0.00    0.00    0.00    0.00    0.00    0.14    0.00    0.00    0.00    0.00    0.00    0.00    0.25    0.01    0.00    0.00    0.00    0.00    0.00    0.00
 2004 084   167      54  0.0017      42  0.0013  200.45    2.38  198.07   13.74   25.23   12.58   20.77  125.75    1.99    3.90    0.16    0.39    0.18    0.39    2.79  194.16   13.57   24.84   12.40   20.38  122.96    0.39    0.01    0.00    0.00    0.00    0.00    0.00    0.14    0.00    0.00    0.00    0.00    0.00    0.00    0.25    0.01    0.00    0.00    0.00    0.00    0.00    0.00
 2004 085   168      54  0.0017      42  0.0013  200.46    2.38  198.07   13.74   25.23   12.58   20.77  125.75    2.00    3.91    0.16    0.39    0.18    0.39    2.79  194.15   13.57   24.84   12.40   20.38  122.95    0.39    0.01    0.00    0.00    0.00    0.00    0.00    0.14    0.00    0.00    0.00    0.00    0.00    0.00    0.25    0.01    0.00    0.00    0.00    0.00    0.00    0.00
 2004 086   169      54  0.0017      42  0.0013  200.46    2.38  198.08   13.74   25.23   12.58   20.77  125.76    2.00    3.92    0.16    0.39    0.18    0.39    2.80  194.15   13.57   24.83   12.40   20.38  122.95    0.39    0.01    0.00    0.00    0.00    0.00    0.00    0.14    0.00    0.00    0.00    0.00    0.00    0.00    0.25    0.01    0.00    0.00    0.00    0.00    0.00    0.00
 2004 087   170      54  0.0017      42  0.0013  200.47    2.38  198.09   13.74   25.23   12.58   20.77  125.76    2.00    3.93    0.16    0.39    0.18    0.39    2.81  194.15   13.57   24.83   12.40   20.38  122.95    0.39    0.01    0.00    0.00    0.00    0.00    0.00    0.14    0.00    0.00    0.00    0.00    0.00    0.00    0.25    0.01    0.00    0.00    0.00    0.00    0.00    0.00
 2004 088   171      54  0.0017      42  0.0013  200.47    2.38  198.09   13.74   25.23   12.58   20.77  125.77    2.00    3.94    0.16    0.39    0.18    0.39    2.82  194.14   13.57   24.83   12.40   20.38  122.95    0.39    0.01    0.00    0.00    0.00    0.00    0.00    0.14    0.00    0.00    0.00    0.00    0.00    0.00    0.25    0.01    0.00    0.00    0.00    0.00    0.00    0.00
 2004 089   172      54  0.0017      42  0.0013  200.48    2.38  198.10   13.74   25.23   12.58   20.77  125.77    2.00    3.95    0.16    0.39    0.18    0.39    2.82  194.14   13.57   24.83   12.40   20.38  122.95    0.39    0.01    0.00    0.00    0.00    0.00    0.00    0.14    0.00    0.00    0.00    0.00    0.00    0.00    0.25    0.01    0.00    0.00    0.00    0.00    0.00    0.00
 2004 090   173      54  0.0017      42  0.0013  200.48    2.38  198.11   13.74   25.23   12.58   20.77  125.78    2.01    3.96    0.16    0.39    0.18    0.39    2.83  194.14   13.57   24.83   12.40   20.38  122.94    0.37    0.01    0.00    0.00    0.00    0.00    0.00    0.13    0.00    0.00    0.00    0.00    0.00    0.00    0.25    0.01    0.00    0.00    0.00    0.00    0.00    0.00
 2004 091   174      54  0.0017      42  0.0013  200.49    2.37  198.11   13.74   25.23   12.58   20.78  125.78    2.01    3.97    0.16    0.39    0.18    0.39    2.84  194.13   13.58   24.83   12.40   20.38  122.94    0.36    0.01    0.00    0.00    0.00    0.00    0.00    0.12    0.00    0.00    0.00    0.00    0.00    0.00    0.24    0.01    0.00    0.00    0.00    0.00    0.00    0.00
 2004 092   175      54  0.0017      42  0.0013  200.49    2.37  198.12   13.75   25.23   12.58   20.78  125.79    2.02    3.97    0.16    0.39    0.18    0.39    2.84  194.13   13.58   24.83   12.40   20.38  122.94    0.35    0.01    0.00    0.00    0.00    0.00    0.00    0.11    0.00    0.00    0.00    0.00    0.00    0.00    0.24    0.01    0.00    0.00    0.00    0.00    0.00    0.00
 2004 093   176      54  0.0017      42  0.0013  200.49    2.37  198.13   13.75   25.23   12.58   20.78  125.79    2.02    3.98    0.16    0.40    0.18    0.39    2.85  194.13   13.58   24.83   12.40   20.38  122.94    0.34    0.01    0.00    0.00    0.00    0.00    0.00    0.10    0.00    0.00    0.00    0.00    0.00    0.00    0.24    0.01    0.00    0.00    0.00    0.00    0.00    0.00
 2004 094   177      54  0.0017      42  0.0013  200.50    2.36  198.13   13.75   25.23   12.58   20.78  125.80    2.03    3.99    0.16    0.40    0.18    0.39    2.86  194.13   13.58   24.83   12.40   20.38  122.94    0.34    0.01    0.00    0.00    0.00    0.00    0.00    0.10    0.00    0.00    0.00    0.00    0.00    0.00    0.24    0.01    0.00    0.00    0.00    0.00    0.00    0.00
 2004 095   178      54  0.0017      42  0.0013  200.50    2.36  198.14   13.75   25.23   12.58   20.78  125.80    2.03    4.00    0.16    0.40    0.18    0.40    2.86  194.13   13.58   24.83   12.40   20.38  122.94    0.33    0.01    0.00    0.00    0.00    0.00    0.00    0.09    0.00    0.00    0.00    0.00    0.00    0.00    0.24    0.01    0.00    0.00    0.00    0.00    0.00    0.00
 2004 096   179      54  0.0017      42  0.0013  200.51    2.36  198.15   13.75   25.23   12.58   20.78  125.81    2.03    4.01    0.16    0.40    0.18    0.40    2.87  194.13   13.58   24.83   12.40   20.38  122.93    0.33    0.01    0.00    0.00    0.00    0.00    0.00    0.09    0.00    0.00    0.00    0.00    0.00    0.00    0.24    0.01    0.00    0.00    0.00    0.00    0.00    0.00
 2004 097   180      54  0.0017      42  0.0013  200.51    2.36  198.15   13.75   25.23   12.58   20.78  125.81    2.03    4.02    0.16    0.40    0.18    0.40    2.88  194.12   13.58   24.83   12.40   20.38  122.93    0.32    0.01    0.00    0.00    0.00    0.00    0.00    0.09    0.00    0.00    0.00    0.00    0.00    0.00    0.24    0.01    0.00    0.00    0.00    0.00    0.00    0.00
 2004 098   181      54  0.0017      42  0.0013  200.52    2.36  198.16   13.75   25.23   12.58   20.78  125.82    2.04    4.02    0.17    0.40    0.18    0.40    2.88  194.12   13.58   24.83   12.40   20.38  122.93    0.32    0.01    0.00    0.00    0.00    0.00    0.00    0.08    0.00    0.00    0.00    0.00    0.00    0.00    0.24    0.01    0.00    0.00    0.00    0.00    0.00    0.00
 2004 099   182      54  0.0017      42  0.0013  200.52    2.35  198.17   13.75   25.23   12.58   20.78  125.82    2.04    4.03    0.17    0.40    0.18    0.40    2.89  194.12   13.59   24.83   12.40   20.38  122.93    0.32    0.01    0.00    0.00    0.00    0.00    0.00    0.08    0.00    0.00    0.00    0.00    0.00    0.00    0.24    0.01    0.00    0.00    0.00    0.00    0.00    0.00
 2004 100   183      54  0.0017      42  0.0013  200.52    2.35  198.17   13.76   25.23   12.58   20.78  125.82    2.04    4.04    0.17    0.40    0.18    0.40    2.89  194.12   13.59   24.83   12.40   20.38  122.93    0.31    0.01    0.00    0.00    0.00    0.00    0.00    0.08    0.00    0.00    0.00    0.00    0.00    0.00    0.23    0.01    0.00    0.00    0.00    0.00    0.00    0.00
 2004 101   184      54  0.0017      42  0.0013  200.53    2.35  198.18   13.76   25.23   12.58   20.78  125.83    2.05    4.05    0.17    0.40    0.18    0.40    2.90  194.11   13.59   24.83   12.40   20.38  122.92    0.30    0.01    0.00    0.00    0.00    0.00    0.00    0.07    0.00    0.00    0.00    0.00    0.00    0.00    0.23    0.01    0.00    0.00    0.00    0.00    0.00    0.00
 2004 102   185      54  0.0017      42  0.0013  200.53    2.35  198.18   13.76   25.23   12.58   20.78  125.83    2.05    4.06    0.17    0.40    0.18    0.40    2.91  194.11   13.59   24.83   12.40   20.38  122.92    0.30    0.01    0.00    0.00    0.00    0.00    0.00    0.07    0.00    0.00    0.00    0.00    0.00    0.00    0.23    0.01    0.00    0.00    0.00    0.00    0.00    0.00
 2004 103   186      54  0.0017      42  0.0013  200.54    2.35  198.19   13.76   25.23   12.58   20.78  125.84    2.05    4.07    0.17    0.40    0.18    0.40    2.91  194.11   13.59   24.83   12.40   20.38  122.92    0.29    0.01    0.00    0.00    0.00    0.00    0.00    0.06    0.00    0.00    0.00    0.00    0.00    0.00    0.23    0.01    0.00    0.00    0.00    0.00    0.00    0.00
 2004 104   187      54  0.0017      42  0.0013  200.54    2.34  198.20   13.76   25.23   12.58   20.78  125.84    2.06    4.07    0.17    0.41    0.18    0.40    2.92  194.11   13.59   24.82   12.40   20.37  122.92    0.29    0.01    0.00    0.00    0.00    0.00    0.00    0.06    0.00    0.00    0.00    0.00    0.00    0.00    0.23    0.01    0.00    0.00    0.00    0.00    0.00    0.00
 2004 105   188      54  0.0017      42  0.0013  200.54    2.34  198.20   13.76   25.23   12.58   20.78  125.84    2.06    4.08    0.17    0.41    0.18    0.40    2.92  194.11   13.59   24.82   12.40   20.37  122.92    0.28    0.01    0.00    0.00    0.00    0.00    0.00    0.06    0.00    0.00    0.00    0.00    0.00    0.00    0.23    0.01    0.00    0.00    0.00    0.00    0.00    0.00
 2004 106   189      54  0.0017      42  0.0013  200.55    2.34  198.21   13.77   25.23   12.58   20.78  125.85    2.06    4.09    0.17    0.41    0.18    0.40    2.93  194.11   13.59   24.82   12.40   20.37  122.92    0.28    0.01    0.00    0.00    0.00    0.00    0.00    0.05    0.00    0.00    0.00    0.00    0.00    0.00    0.23    0.01    0.00    0.00    0.00    0.00    0.00    0.00
 2004 107   190      54  0.0017      42  0.0013  200.55    2.34  198.22   13.77   25.23   12.58   20.78  125.85    2.06    4.10    0.17    0.41    0.18    0.40    2.93  194.10   13.60   24.82   12.40   20.37  122.91    0.27    0.01    0.00    0.00    0.00    0.00    0.00    0.05    0.00    0.00    0.00    0.00    0.00    0.00    0.23    0.01    0.00    0.00    0.00    0.00    0.00    0.00
 2004 108   191      54  0.0017      42  0.0013  200.56    2.34  198.22   13.77   25.23   12.58   20.78  125.86    2.07    4.11    0.17    0.41    0.18    0.41    2.94  194.10   13.60   24.82   12.40   20.37  122.91    0.27    0.01    0.00    0.00    0.00    0.00    0.00    0.05    0.00    0.00    0.00    0.00    0.00    0.00    0.22    0.01    0.00    0.00    0.00    0.00    0.00    0.00
 2004 109   192      54  0.0017      42  0.0013  200.57    2.34  198.23   13.77   25.23   12.58   20.78  125.87    2.07    4.12    0.17    0.41    0.18    0.41    2.95  194.10   13.60   24.82   12.40   20.37  122.91    0.27    0.01    0.00    0.00    0.00    0.00    0.00    0.04    0.00    0.00    0.00    0.00    0.00    0.00    0.22    0.01    0.00    0.00    0.00    0.00    0.00    0.00
 2004 110   193      54  0.0017      42  0.0013  200.57    2.33  198.24   13.77   25.24   12.58   20.78  125.87    2.07    4.13    0.17    0.41    0.18    0.41    2.96  194.10   13.60   24.82   12.40   20.37  122.91    0.26    0.01    0.00    0.00    0.00    0.00    0.00    0.04    0.00    0.00    0.00    0.00    0.00    0.00    0.22    0.01    0.00    0.00    0.00    0.00    0.00    0.00
 2004 111   194      54  0.0017      42  0.0013  200.58    2.33  198.25   13.77   25.24   12.58   20.78  125.88    2.07    4.14    0.17    0.41    0.18    0.41    2.97  194.09   13.60   24.82   12.40   20.37  122.90    0.26    0.01    0.00    0.00    0.00    0.00    0.00    0.04    0.00    0.00    0.00    0.00    0.00    0.00    0.22    0.01    0.00    0.00    0.00    0.00    0.00    0.00
 2004 112   195      54  0.0017      42  0.0013  200.59    2.33  198.26   13.77   25.24   12.58   20.78  125.88    2.07    4.15    0.17    0.41    0.18    0.41    2.98  194.09   13.60   24.82   12.40   20.37  122.90    0.26    0.01    0.00    0.00    0.00    0.00    0.00    0.04    0.00    0.00    0.00    0.00    0.00    0.00    0.22    0.01    0.00    0.00    0.00    0.00    0.00    0.00
 2004 113   196      54  0.0017      42  0.0013  200.59    2.33  198.26   13.78   25.24   12.58   20.78  125.89    2.08    4.16    0.17    0.41    0.18    0.41    2.98  194.09   13.60   24.82   12.40   20.37  122.90    0.26    0.01    0.00    0.00    0.00    0.00    0.00    0.04    0.00    0.00    0.00    0.00    0.00    0.00    0.22    0.01    0.00    0.00    0.00    0.00    0.00    0.00
 2004 114   197      54  0.0017      42  0.0013  200.60    2.33  198.27   13.78   25.24   12.58   20.78  125.89    2.08    4.17    0.17    0.41    0.18    0.41    2.99  194.09   13.60   24.82   12.40   20.37  122.90    0.25    0.01    0.00    0.00    0.00    0.00    0.00    0.03    0.00    0.00    0.00    0.00    0.00    0.00    0.22    0.01    0.00    0.00    0.00    0.00    0.00    0.00
[...]
 2004 244   327      59  0.0019      43  0.0014  209.91    5.37  204.53   15.09   26.44   13.03   21.77  128.20    4.94    7.79    0.56    1.08    0.42    0.96    4.77  196.66   14.51   25.33   12.61   20.80  123.41    0.43    0.09    0.02    0.02    0.01    0.01    0.02    0.00    0.01    0.00    0.00    0.00    0.00    0.00    0.43    0.08    0.02    0.02    0.01    0.01    0.02    0.00
 2004 245   328      59  0.0019      43  0.0014  209.92    5.37  204.55   15.09   26.44   13.03   21.77  128.21    4.94    7.80    0.56    1.09    0.42    0.96    4.78  196.66   14.51   25.33   12.61   20.80  123.41    0.43    0.09    0.02    0.02    0.01    0.01    0.02    0.00    0.01    0.00    0.00    0.00    0.00    0.00    0.43    0.08    0.02    0.02    0.01    0.01    0.02    0.00
 2004 246   329      59  0.0019      43  0.0014  209.94    5.37  204.56   15.09   26.44   13.03   21.78  128.22    4.94    7.82    0.57    1.09    0.42    0.96    4.79  196.65   14.51   25.33   12.61   20.80  123.41    0.43    0.09    0.02    0.02    0.01    0.02    0.02    0.00    0.01    0.00    0.00    0.00    0.00    0.00    0.43    0.08    0.02    0.02    0.01    0.01    0.02    0.00
 2004 247   330      59  0.0019      43  0.0014  209.95    5.37  204.58   15.10   26.44   13.04   21.78  128.22    4.94    7.83    0.57    1.09    0.42    0.96    4.79  196.65   14.51   25.33   12.61   20.80  123.41    0.43    0.09    0.02    0.03    0.01    0.02    0.02    0.00    0.01    0.00    0.00    0.00    0.00    0.00    0.43    0.08    0.02    0.02    0.01    0.01    0.02    0.00
 2004 248   331      59  0.0019      43  0.0014  209.96    5.37  204.59   15.10   26.45   13.04   21.78  128.23    4.94    7.85    0.57    1.09    0.42    0.96    4.80  196.65   14.51   25.33   12.61   20.80  123.41    0.43    0.10    0.02    0.03    0.01    0.02    0.03    0.00    0.01    0.00    0.00    0.00    0.00    0.00    0.43    0.08    0.02    0.02    0.01    0.01    0.02    0.00
 2004 249   332      59  0.0019      43  0.0014  209.98    5.37  204.61   15.10   26.45   13.04   21.78  128.24    4.94    7.86    0.57    1.10    0.42    0.96    4.81  196.65   14.51   25.33   12.60   20.80  123.40    0.43    0.10    0.02    0.03    0.01    0.02    0.03    0.00    0.01    0.00    0.00    0.00    0.00    0.00    0.43    0.08    0.02    0.02    0.01    0.01    0.02    0.00
 2004 250   333      59  0.0019      43  0.0014  209.99    5.37  204.62   15.10   26.45   13.04   21.78  128.24    4.95    7.88    0.57    1.10    0.42    0.97    4.82  196.65   14.51   25.33   12.60   20.80  123.40    0.42    0.10    0.02    0.03    0.01    0.02    0.03    0.00    0.01    0.00    0.00    0.00    0.00    0.00    0.42    0.08    0.02    0.02    0.01    0.01    0.02    0.00
 2004 251   334      59  0.0019      43  0.0014  210.00    5.37  204.63   15.11   26.45   13.04   21.78  128.25    4.95    7.89    0.57    1.10    0.42    0.97    4.83  196.64   14.52   25.33   12.60   20.80  123.40    0.42    0.10    0.02    0.03    0.01    0.02    0.03    0.00    0.01    0.00    0.00    0.00    0.00    0.00    0.42    0.08    0.02    0.02    0.01    0.01    0.02    0.00
 2004 252   335      59  0.0019      43  0.0014  210.01    5.37  204.65   15.11   26.45   13.04   21.79  128.26    4.95    7.91    0.57    1.10    0.43    0.97    4.83  196.64   14.52   25.32   12.60   20.80  123.40    0.42    0.10    0.02    0.03    0.01    0.02    0.03    0.00    0.01    0.00    0.00    0.00    0.00    0.00    0.42    0.08    0.02    0.02    0.01    0.01    0.02    0.00
 2004 253   336      59  0.0019      43  0.0014  210.03    5.37  204.66   15.11   26.46   13.04   21.79  128.27    4.95    7.92    0.58    1.10    0.43    0.97    4.84  196.64   14.52   25.32   12.60   20.80  123.40    0.42    0.10    0.02    0.03    0.01    0.02    0.03    0.00    0.01    0.00    0.00    0.00    0.00    0.00    0.42    0.09    0.02    0.02    0.01    0.01    0.02    0.00
 2004 254   337      59  0.0019      43  0.0014  210.04    5.37  204.68   15.12   26.46   13.04   21.79  128.27    4.95    7.94    0.58    1.11    0.43    0.97    4.85  196.64   14.52   25.32   12.60   20.80  123.39    0.42    0.10    0.02    0.03    0.01    0.02    0.03    0.00    0.02    0.00    0.00    0.00    0.00    0.00    0.42    0.09    0.02    0.02    0.01    0.01    0.02    0.00
 2004 255   338      59  0.0019      43  0.0014  210.06    5.36  204.69   15.12   26.46   13.04   21.79  128.28    4.95    7.95    0.58    1.11    0.43    0.98    4.86  196.64   14.52   25.32   12.60   20.80  123.39    0.41    0.11    0.02    0.03    0.01    0.02    0.03    0.00    0.02    0.00    0.00    0.00    0.00    0.00    0.41    0.09    0.02    0.02    0.01    0.01    0.02    0.00
 2004 256   339      59  0.0019      43  0.0014  210.07    5.36  204.71   15.12   26.46   13.04   21.79  128.29    4.95    7.97    0.58    1.11    0.43    0.98    4.87  196.64   14.52   25.32   12.60   20.80  123.39    0.41    0.11    0.02    0.03    0.01    0.02    0.03    0.00    0.02    0.00    0.00    0.00    0.00    0.01    0.41    0.09    0.02    0.02    0.01    0.01    0.03    0.00
 2004 257   340      59  0.0019      43  0.0014  210.09    5.36  204.73   15.12   26.47   13.04   21.79  128.30    4.95    7.98    0.58    1.11    0.43    0.98    4.88  196.63   14.52   25.32   12.60   20.80  123.39    0.41    0.11    0.02    0.03    0.01    0.02    0.03    0.00    0.02    0.00    0.00    0.00    0.00    0.01    0.41    0.09    0.02    0.03    0.01    0.01    0.03    0.00
 2004 258   341      59  0.0019      43  0.0014  210.11    5.36  204.75   15.13   26.47   13.05   21.80  128.31    4.95    8.00    0.58    1.12    0.43    0.98    4.89  196.63   14.52   25.32   12.60   20.80  123.39    0.41    0.11    0.02    0.03    0.01    0.02    0.03    0.00    0.02    0.00    0.00    0.00    0.00    0.01    0.41    0.10    0.02    0.03    0.01    0.02    0.03    0.00
 2004 259   342      60  0.0019      43  0.0014  210.12    5.36  204.76   15.13   26.47   13.05   21.80  128.31    4.95    8.01    0.58    1.12    0.43    0.98    4.90  196.63   14.52   25.32   12.60   20.80  123.39    0.41    0.12    0.02    0.03    0.01    0.02    0.03    0.00    0.02    0.00    0.01    0.00    0.00    0.01    0.41    0.10    0.02    0.03    0.01    0.02    0.03    0.00
 2004 260   343      60  0.0019      43  0.0014  210.14    5.36  204.78   15.13   26.48   13.05   21.80  128.32    4.95    8.03    0.59    1.12    0.43    0.99    4.90  196.63   14.52   25.32   12.60   20.80  123.38    0.41    0.12    0.02    0.03    0.01    0.02    0.03    0.00    0.02    0.00    0.01    0.00    0.00    0.01    0.41    0.10    0.02    0.03    0.01    0.02    0.03    0.00
 2004 261   344      60  0.0019      43  0.0014  210.15    5.36  204.79   15.13   26.48   13.05   21.80  128.33    4.95    8.04    0.59    1.12    0.43    0.99    4.91  196.63   14.52   25.32   12.60   20.80  123.38    0.41    0.12    0.02    0.03    0.01    0.02    0.03    0.00    0.02    0.00    0.00    0.00    0.00    0.01    0.41    0.10    0.02    0.03    0.01    0.02    0.03    0.00
 2004 262   345      60  0.0019      43  0.0014  210.16    5.36  204.80   15.13   26.48   13.05   21.80  128.33    4.96    8.06    0.59    1.13    0.43    0.99    4.92  196.63   14.53   25.32   12.60   20.80  123.38    0.41    0.12    0.02    0.03    0.01    0.02    0.03    0.00    0.02    0.00    0.00    0.00    0.00    0.01    0.41    0.10    0.02    0.03    0.01    0.02    0.03    0.00
 2004 263   346      60  0.0019      43  0.0014  210.17    5.36  204.81   15.14   26.48   13.05   21.80  128.34    4.96    8.08    0.59    1.13    0.44    0.99    4.93  196.62   14.53   25.32   12.60   20.79  123.38    0.40    0.11    0.02    0.03    0.01    0.02    0.03    0.00    0.02    0.00    0.00    0.00    0.00    0.01    0.40    0.10    0.02    0.03    0.01    0.02    0.03    0.00
 2004 264   347      60  0.0019      43  0.0014  210.19    5.36  204.83   15.14   26.48   13.05   21.81  128.35    4.96    8.09    0.59    1.13    0.44    0.99    4.94  196.62   14.53   25.32   12.60   20.79  123.38    0.40    0.11    0.02    0.03    0.01    0.02    0.03    0.00    0.02    0.00    0.00    0.00    0.00    0.00    0.40    0.10    0.02    0.03    0.01    0.02    0.03    0.00
 2004 265   348      60  0.0019      43  0.0014  210.21    5.36  204.85   15.14   26.49   13.05   21.81  128.36    4.96    8.11    0.59    1.14    0.44    1.00    4.95  196.62   14.53   25.32   12.60   20.79  123.38    0.40    0.12    0.02    0.03    0.01    0.02    0.03    0.00    0.02    0.00    0.00    0.00    0.00    0.00    0.40    0.10    0.02    0.03    0.01    0.02    0.03    0.00
 2004 266   349      60  0.0019      43  0.0014  210.22    5.36  204.86   15.14   26.49   13.05   21.81  128.37    4.96    8.13    0.59    1.14    0.44    1.00    4.96  196.62   14.53   25.32   12.60   20.79  123.37    0.40    0.12    0.02    0.03    0.01    0.02    0.03    0.00    0.02    0.00    0.00    0.00    0.00    0.01    0.40    0.10    0.02    0.03    0.01    0.02    0.03    0.00
 2004 267   350      60  0.0019      43  0.0014  210.24    5.36  204.88   15.15   26.49   13.05   21.81  128.37    4.96    8.14    0.60    1.14    0.44    1.00    4.97  196.62   14.53   25.32   12.60   20.79  123.37    0.40    0.12    0.02    0.03    0.01    0.02    0.03    0.00    0.02    0.00    0.00    0.00    0.00    0.01    0.40    0.10    0.02    0.03    0.01    0.02    0.03    0.00
 2004 268   351      60  0.0019      43  0.0014  210.26    5.36  204.90   15.15   26.50   13.06   21.81  128.38    4.96    8.16    0.60    1.14    0.44    1.00    4.98  196.61   14.53   25.32   12.60   20.79  123.37    0.40    0.12    0.02    0.03    0.01    0.02    0.03    0.00    0.02    0.00    0.00    0.00    0.00    0.01    0.40    0.10    0.02    0.03    0.01    0.02    0.03    0.00
 2004 269   352      60  0.0019      43  0.0014  210.27    5.36  204.91   15.15   26.50   13.06   21.81  128.39    4.96    8.18    0.60    1.15    0.44    1.00    4.99  196.61   14.53   25.32   12.60   20.79  123.37    0.39    0.12    0.02    0.03    0.01    0.02    0.03    0.00    0.02    0.00    0.00    0.00    0.00    0.00    0.39    0.10    0.02    0.03    0.01    0.02    0.03    0.00
 2004 270   353      60  0.0019      43  0.0014  210.28    5.36  204.92   15.16   26.50   13.06   21.82  128.40    4.97    8.19    0.60    1.15    0.44    1.00    4.99  196.61   14.53   25.32   12.60   20.79  123.37    0.39    0.12    0.02    0.03    0.01    0.02    0.03    0.00    0.01    0.00    0.00    0.00    0.00    0.00    0.39    0.10    0.02    0.03    0.01    0.02    0.03    0.00
 2004 271   354      60  0.0019      43  0.0014  210.29    5.36  204.93   15.16   26.50   13.06   21.82  128.40    4.97    8.21    0.60    1.15    0.44    1.01    5.00  196.61   14.53   25.32   12.60   20.79  123.37    0.39    0.12    0.02    0.03    0.01    0.02    0.03    0.00    0.01    0.00    0.00    0.00    0.00    0.00    0.39    0.10    0.02    0.03    0.01    0.02    0.03    0.00
 2004 272   355      60  0.0019      43  0.0014  210.31    5.36  204.95   15.16   26.50   13.06   21.82  128.41    4.97    8.22    0.60    1.15    0.44    1.01    5.01  196.61   14.53   25.32   12.60   20.79  123.36    0.39    0.11    0.02    0.03    0.01    0.02    0.03    0.00    0.01    0.00    0.00    0.00    0.00    0.00    0.39    0.10    0.02    0.03    0.01    0.02    0.03    0.00
 2004 273   356      60  0.0019      43  0.0014  210.32    5.36  204.96   15.16   26.50   13.06   21.82  128.42    4.97    8.24    0.61    1.16    0.45    1.01    5.02  196.61   14.54   25.32   12.60   20.79  123.36    0.39    0.11    0.02    0.03    0.01    0.02    0.03    0.00    0.01    0.00    0.00    0.00    0.00    0.00    0.39    0.10    0.02    0.03    0.01    0.02    0.03    0.00
 2004 274   357      60  0.0019      43  0.0014  210.33    5.36  204.97   15.16   26.51   13.06   21.82  128.42    4.97    8.25    0.61    1.16    0.45    1.01    5.03  196.61   14.54   25.32   12.60   20.79  123.36    0.39    0.11    0.02    0.03    0.01    0.02    0.03    0.00    0.01    0.00    0.00    0.00    0.00    0.00    0.39    0.10    0.02    0.03    0.01    0.02    0.03    0.00
 2004 275   358      60  0.0019      43  0.0014  210.34    5.36  204.98   15.17   26.51   13.06   21.82  128.43    4.98    8.26    0.61    1.16    0.45    1.01    5.04  196.61   14.54   25.32   12.60   20.79  123.36    0.39    0.11    0.02    0.03    0.01    0.02    0.03    0.00    0.01    0.00    0.00    0.00    0.00    0.00    0.38    0.10    0.02    0.03    0.01    0.02    0.03    0.00
 2004 276   359      60  0.0019      43  0.0014  210.35    5.36  204.99   15.17   26.51   13.06   21.82  128.43    4.98    8.27    0.61    1.16    0.45    1.01    5.04  196.60   14.54   25.32   12.60   20.79  123.36    0.38    0.11    0.02    0.03    0.01    0.02    0.03    0.00    0.01    0.00    0.00    0.00    0.00    0.00    0.38    0.10    0.02    0.03    0.01    0.02    0.03    0.00
 2004 277   360      60  0.0019      43  0.0014  210.36    5.36  205.00   15.17   26.51   13.06   21.82  128.44    4.98    8.28    0.61    1.16    0.45    1.01    5.05  196.60   14.54   25.32   12.60   20.79  123.36    0.38    0.11    0.02    0.03    0.01    0.02    0.03    0.00    0.01    0.00    0.00    0.00    0.00    0.00    0.38    0.10    0.02    0.03    0.01    0.02    0.03    0.00
 2004 278   361      60  0.0019      43  0.0014  210.37    5.36  205.01   15.17   26.51   13.06   21.82  128.45    4.98    8.29    0.61    1.16    0.45    1.01    5.06  196.60   14.54   25.32   12.60   20.79  123.36    0.38    0.11    0.02    0.03    0.01    0.02    0.03    0.00    0.01    0.00    0.00    0.00    0.00    0.00    0.38    0.10    0.02    0.03    0.01    0.02    0.03    0.00
 2004 279   362      60  0.0019      43  0.0014  210.38    5.36  205.01   15.17   26.51   13.06   21.82  128.45    4.98    8.30    0.61    1.16    0.45    1.01    5.07  196.60   14.54   25.32   12.60   20.79  123.35    0.38    0.11    0.02    0.03    0.01    0.02    0.03    0.00    0.01    0.00    0.00    0.00    0.00    0.00    0.38    0.10    0.02    0.03    0.01    0.02    0.03    0.00
 2004 280   363      60  0.0019      43  0.0014  210.38    5.36  205.02   15.17   26.51   13.06   21.82  128.46    4.98    8.31    0.61    1.16    0.45    1.01    5.07  196.60   14.54   25.32   12.60   20.79  123.35    0.38    0.11    0.02    0.03    0.01    0.02    0.03    0.00    0.01    0.00    0.00    0.00    0.00    0.00    0.38    0.10    0.02    0.03    0.01    0.02    0.03    0.00
 2004 281   364      60  0.0019      43  0.0014  210.39    5.36  205.03   15.17   26.51   13.06   21.82  128.46    4.98    8.32    0.61    1.16    0.45    1.01    5.08  196.60   14.54   25.32   12.60   20.79  123.35    0.38    0.11    0.02    0.03    0.01    0.02    0.03    0.00    0.01    0.00    0.00    0.00    0.00    0.00    0.38    0.10    0.02    0.03    0.01    0.02    0.03    0.00
 2004 282   365      60  0.0019      43  0.0014  210.40    5.36  205.04   15.18   26.51   13.06   21.82  128.47    4.98    8.33    0.61    1.16    0.45    1.01    5.09  196.60   14.54   25.32   12.60   20.79  123.35    0.38    0.11    0.02    0.03    0.01    0.02    0.03    0.00    0.01    0.00    0.00    0.00    0.00    0.00    0.38    0.10    0.02    0.03    0.01    0.02    0.03    0.00
 2004 283   366      60  0.0019      43  0.0014  210.40    5.36  205.04   15.18   26.51   13.06   21.82  128.47    4.98    8.34    0.62    1.16    0.45    1.01    5.09  196.60   14.54   25.32   12.60   20.79  123.35    0.38    0.11    0.02    0.03    0.01    0.02    0.03    0.00    0.01    0.00    0.00    0.00    0.00    0.00    0.38    0.10    0.02    0.03    0.01    0.02    0.03    0.00
 2004 284   367      60  0.0019      43  0.0014  210.41    5.36  205.05   15.18   26.51   13.06   21.82  128.48    4.98    8.34    0.62    1.16    0.45    1.02    5.10  196.60   14.54   25.32   12.60   20.79  123.35    0.38    0.11    0.02    0.03    0.01    0.02    0.03    0.00    0.01    0.00    0.00    0.00    0.00    0.00    0.38    0.10    0.02    0.03    0.01    0.02    0.03    0.00
 2004 285   368      60  0.0019      43  0.0014  210.42    5.36  205.05   15.18   26.51   13.06   21.82  128.48    4.98    8.35    0.62    1.16    0.45    1.02    5.11  196.60   14.54   25.32   12.60   20.79  123.35    0.38    0.11    0.02    0.03    0.01    0.02    0.03    0.00    0.01    0.00    0.00    0.00    0.00    0.00    0.38    0.10    0.02    0.03    0.01    0.02    0.03    0.00
 2004 286   369      60  0.0019      43  0.0014  210.43    5.36  205.06   15.18   26.51   13.06   21.82  128.49    4.99    8.36    0.62    1.17    0.45    1.02    5.11  196.59   14.54   25.32   12.60   20.79  123.34    0.38    0.11    0.02    0.03    0.01    0.02    0.03    0.00    0.01    0.00    0.00    0.00    0.00    0.00    0.38    0.10    0.02    0.03    0.01    0.02    0.03    0.00
 2004 287   370      60  0.0019      43  0.0014  210.43    5.36  205.07   15.18   26.51   13.06   21.82  128.49    4.99    8.37    0.62    1.17    0.45    1.02    5.12  196.59   14.54   25.32   12.60   20.79  123.34    0.37    0.11    0.02    0.03    0.01    0.02    0.03    0.00    0.01    0.00    0.00    0.00    0.00    0.00    0.37    0.10    0.02    0.03    0.01    0.02    0.03    0.00
 2004 288   371      60  0.0019      43  0.0014  210.44    5.36  205.08   15.18   26.51   13.06   21.82  128.50    4.99    8.38    0.62    1.17    0.45    1.02    5.13  196.59   14.54   25.32   12.60   20.79  123.34    0.37    0.11    0.02    0.03    0.01    0.02    0.03    0.00    0.01    0.00    0.00    0.00    0.00    0.00    0.37    0.10    0.02    0.03    0.01    0.02    0.03    0.00
 2004 289   372      60  0.0019      43  0.0014  210.45    5.36  205.08   15.18   26.51   13.06   21.82  128.50    4.99    8.38    0.62    1.17    0.45    1.02    5.13  196.59   14.54   25.32   12.60   20.79  123.34    0.37    0.11    0.02    0.03    0.01    0.02    0.03    0.00    0.01    0.00    0.00    0.00    0.00    0.00    0.37    0.10    0.02    0.03    0.01    0.02    0.03    0.00
 2004 290   373      60  0.0019      43  0.0014  210.45    5.36  205.09   15.18   26.51   13.06   21.82  128.51    4.99    8.39    0.62    1.17    0.45    1.02    5.14  196.59   14.54   25.32   12.60   20.79  123.34    0.37    0.10    0.02    0.03    0.01    0.02    0.03    0.00    0.01    0.00    0.00    0.00    0.00    0.00    0.37    0.10    0.02    0.03    0.01    0.02    0.03    0.00
 2004 291   374      60  0.0019      43  0.0014  210.46    5.36  205.09   15.18   26.51   13.06   21.82  128.51    4.99    8.40    0.62    1.17    0.45    1.02    5.15  196.59   14.54   25.32   12.60   20.79  123.34    0.37    0.10    0.02    0.03    0.01    0.02    0.03    0.00    0.01    0.00    0.00    0.00    0.00    0.00    0.37    0.10    0.02    0.03    0.01    0.02    0.03    0.00
 2004 292   375      60  0.0019      43  0.0014  210.46    5.36  205.10   15.18   26.51   13.06   21.82  128.52    4.99    8.41    0.62    1.17    0.45    1.02    5.15  196.59   14.55   25.32   12.60   20.79  123.34    0.37    0.10    0.02    0.03    0.01    0.02    0.03    0.00    0.01    0.00    0.00    0.00    0.00    0.00    0.37    0.10    0.02    0.03    0.01    0.02    0.03    0.00
 2004 293   376      60  0.0019      43  0.0014  210.47    5.36  205.10   15.18   26.51   13.06   21.82  128.52    4.99    8.41    0.62    1.17    0.45    1.02    5.16  196.59   14.55   25.32   12.60   20.79  123.34    0.37    0.10    0.02    0.03    0.01    0.02    0.03    0.00    0.01    0.00    0.00    0.00    0.00    0.00    0.37    0.10    0.02    0.03    0.01    0.02    0.03    0.00
 2004 294   377      60  0.0019      43  0.0014  210.47    5.36  205.11   15.18   26.51   13.06   21.82  128.53    4.99    8.42    0.62    1.17    0.45    1.02    5.16  196.59   14.55   25.32   12.60   20.79  123.34    0.37    0.10    0.02    0.03    0.01    0.02    0.03    0.00    0.01    0.00    0.00    0.00    0.00    0.00    0.37    0.10    0.02    0.03    0.01    0.02    0.03    0.00
