*SOM C DAILY OUTPUT FILE

*DSSAT Cropping System Model Ver. 4.5.1.023 -Stub         OCT 13, 2014; 10:39:36
                                                                                
*RUN   1        : N0 P0                     MZCER045 GHWA0401    1              
 MODEL          : MZCER045 - Maize                                              
 EXPERIMENT     : GHWA0401 MZ                                                   
 DATA PATH      :                                                               
 TREATMENT  1   : N0 P0                     MZCER045                            
  
!                                                                                                                                                                                                                                                                                                                                                                                                                                                  Cumul.
!               <---- SOM C in top layers ----> <- SOM + LIT C in top layers -> <------------ Total Soil Organic Carbon (SOM + LIT) ------------> <--------- Active Soil Organic Carbon (SOM1) ---------> <---- Intermediate Soil Organic C (SOM2) -----> <------- Passive Soil Organic C (SOM3) -------> <------------------ Litter Carbon --------------------> <-------------- Metabolic Litter Carbon --------------> <------------- Structural Litter Carbon -------------->  Resid.  <-Accum. CO2->
!               20cm-kg  20cm-% 40cm-kg  40cm-% 20cm-kg  20cm-% 40cm-kg  40cm-%     Total Surface    Soil     0-5    5-15   15-20   20-30   30-90 Surface    Soil     0-5    5-15   15-20   20-30   30-90    Soil     0-5    5-15   15-20   20-30   30-90    Soil     0-5    5-15   15-20   20-30   30-90 Surface    Soil     0-5    5-15   15-20   20-30   30-90 Surface    Soil     0-5    5-15   15-20   20-30   30-90 Surface    Soil     0-5    5-15   15-20   20-30   30-90 (kg/ha) Surface    Soil
@YEAR DOY   DAS  SCS20D  SC%20D  SCS40D  SC%40D  SLC20D  SL%20D  SLC40D  SL%40D      SOCD    SC0D    SCTD    SC1D    SC2D    SC3D    SC4D   SC5+D   S1C0D   S1CTD   S1C1D   S1C2D   S1C3D   S1C4D  S1C5+D   S2CTD   S2C1D   S2C2D   S2C3D   S2C4D  S2C5+D   S3CTD   S3C1D   S3C2D   S3C3D   S3C4D  S3C5+D    LC0D    LCTD    LC1D    LC2D    LC3D    LC4D   LC5+D   MEC0D   MECTD   MEC1D   MEC2D   MEC3D   MEC4D  MEC5+D   STC0D   STCTD   STC1D   STC2D   STC3D   STC4D  STC5+D    RESC   CO20C   CO2SC
 2003 282     0   13829   0.449   10974   0.349   13860   0.450   10990   0.350     50171     605   49566    3696    6776    3388    5495   30211       0      64       4       7       4       7      43    1222      70     132      68     140     813   48219    3612    6622    3311    5338   29336     605      60      10      15       6       9      20     443      42       7      11       4       7      14     162      18       3       4       2       3       6       0       0       0
 2003 283     1   13842   0.449   10974   0.349   13872   0.450   10989   0.350     50152     589   49563    3696    6775    3388    5494   30210      13      65       4       7       4       8      43    1222      70     132      67     140     812   48219    3612    6622    3311    5338   29336     576      57       9      14       6       9      19     415      39       6      10       4       6      13     161      18       3       4       2       3       6       0      16       3
 2003 284     2   13853   0.450   10974   0.349   13881   0.451   10988   0.350     50135     575   49560    3696    6775    3387    5494   30208      23      66       4       7       4       8      43    1222      70     132      67     140     812   48218    3612    6622    3311    5338   29335     552      54       9      14       5       8      18     392      36       6       9       4       6      12     161      17       3       4       2       3       6       0      29       7
 2003 285     3   13863   0.450   10973   0.349   13890   0.451   10987   0.350     50119     562   49557    3696    6774    3387    5493   30207      33      67       4       8       4       8      43    1222      71     132      67     140     812   48217    3612    6622    3311    5338   29335     529      51       8      13       5       8      17     370      34       6       9       3       5      11     160      17       3       4       2       3       6       0      42      10
 2003 286     4   13873   0.450   10973   0.349   13898   0.451   10986   0.350     50103     549   49554    3696    6773    3387    5493   30206      43      68       4       8       4       8      44    1222      71     132      67     140     812   48216    3612    6622    3311    5338   29334     506      48       8      12       5       7      16     347      31       5       8       3       5      10     159      17       3       4       2       3       6       0      55      13
 2003 287     5   13884   0.451   10973   0.349   13907   0.452   10985   0.350     50086     535   49551    3696    6773    3387    5492   30204      52      68       4       8       4       8      44    1222      72     132      67     140     812   48216    3612    6621    3311    5338   29334     482      46       7      12       4       7      15     324      29       5       7       3       4      10     158      17       3       4       2       3       6       0      68      16
 2003 288     6   13891   0.451   10973   0.349   13914   0.452   10984   0.350     50072     523   49549    3696    6772    3386    5492   30203      60      69       5       8       4       8      44    1222      72     131      67     140     811   48215    3612    6621    3311    5337   29334     463      44       7      11       4       7      15     306      27       4       7       3       4       9     157      17       3       4       2       3       6       0      80      19
 2003 289     7   13898   0.451   10973   0.349   13920   0.452   10984   0.350     50059     512   49547    3696    6771    3386    5492   30202      66      69       5       8       4       8      44    1222      73     131      67     140     811   48214    3612    6621    3311    5337   29333     446      42       7      10       4       6      14     289      25       4       6       2       4       8     157      17       3       4       2       3       5       0      90      22
 2003 290     8   13904   0.451   10972   0.349   13925   0.452   10983   0.350     50047     502   49545    3696    6771    3386    5491   30201      72      69       5       8       4       8      44    1222      73     131      67     140     811   48214    3612    6621    3311    5337   29333     431      40       7      10       4       6      13     275      23       4       6       2       4       8     156      17       3       4       2       3       5       0      99      24
 2003 291     9   13909   0.452   10972   0.349   13929   0.452   10982   0.350     50037     494   49543    3697    6770    3386    5491   30200      76      69       5       9       4       8      44    1223      74     131      67     140     811   48213    3612    6621    3310    5337   29332     417      38       6      10       4       6      13     262      22       4       5       2       3       7     155      17       3       4       2       3       5       0     108      27
 2003 292    10   13915   0.452   10972   0.349   13934   0.452   10982   0.350     50025     484   49541    3697    6770    3385    5491   30199      82      69       5       9       4       8      44    1223      74     131      67     140     810   48212    3612    6621    3310    5337   29332     402      37       6       9       4       6      12     248      20       3       5       2       3       7     154      17       3       4       2       3       5       0     117      29
 2003 293    11   13920   0.452   10972   0.349   13938   0.453   10981   0.350     50014     475   49539    3697    6770    3385    5490   30197      86      70       5       9       4       8      44    1223      75     131      67     140     810   48211    3612    6621    3310    5337   29331     389      35       6       9       3       5      12     235      19       3       5       2       3       7     154      16       3       4       2       3       5       0     125      31
 2003 294    12   13923   0.452   10971   0.349   13940   0.453   10980   0.350     50005     468   49538    3697    6769    3385    5490   30196      89      70       5       9       4       8      44    1223      75     131      67     140     810   48211    3612    6621    3310    5337   29331     379      34       6       8       3       5      11     226      18       3       4       2       3       6     153      16       3       4       2       3       5       0     132      34
 2003 295    13   13926   0.452   10971   0.349   13943   0.453   10980   0.350     49997     462   49536    3698    6769    3385    5489   30195      91      70       5       9       4       8      44    1223      76     131      67     140     810   48210    3612    6621    3310    5337   29331     370      33       5       8       3       5      11     218      17       3       4       2       2       6     153      16       3       4       2       3       5       0     137      36
 2003 296    14   13928   0.452   10971   0.349   13944   0.453   10979   0.350     49990     457   49534    3698    6768    3385    5489   30194      94      70       5       9       4       8      44    1223      76     131      67     139     809   48209    3612    6620    3310    5337   29330     363      32       5       8       3       5      10     211      16       3       4       1       2       5     152      16       3       4       2       3       5       0     142      39
 2003 297    15   13933   0.452   10970   0.349   13949   0.453   10978   0.350     49979     448   49532    3698    6768    3384    5489   30193      99      70       5       9       4       8      44    1223      76     131      67     139     809   48208    3612    6620    3310    5337   29330     349      30       5       8       3       5      10     198      14       3       4       1       2       5     152      16       3       4       2       3       5       0     150      41
 2003 298    16   13938   0.453   10970   0.349   13953   0.453   10978   0.350     49968     438   49530    3699    6767    3384    5488   30191     103      70       5       9       4       8      44    1224      77     131      67     139     809   48208    3612    6620    3310    5337   29329     335      29       5       7       3       4      10     185      13       2       3       1       2       5     151      16       3       4       2       2       5       0     159      44
 2003 299    17   13941   0.453   10970   0.349   13955   0.453   10977   0.350     49957     429   49528    3699    6767    3384    5488   30190     105      69       5       9       4       8      44    1224      78     131      67     139     809   48207    3612    6620    3310    5336   29329     324      28       5       7       3       4       9     174      12       2       3       1       2       4     150      16       3       4       2       2       5       0     167      46
 2003 300    18   13943   0.453   10969   0.349   13957   0.453   10976   0.350     49948     422   49527    3700    6766    3384    5488   30189     107      69       5       9       4       8      44    1224      79     131      67     139     808   48206    3611    6620    3310    5336   29328     314      27       5       7       3       4       9     165      11       2       3       1       2       4     149      16       3       4       2       2       5       0     174      48
 2003 301    19   13945   0.453   10969   0.349   13958   0.453   10976   0.350     49940     415   49525    3700    6766    3384    5487   30188     109      69       5       9       4       8      44    1225      79     131      67     139     808   48205    3611    6620    3310    5336   29328     306      26       4       6       3       4       9     158      11       2       3       1       2       4     149      16       3       4       2       2       5       0     180      51
 2003 302    20   13946   0.453   10968   0.349   13959   0.453   10975   0.350     49933     410   49524    3701    6766    3383    5487   30187     110      69       5       9       4       8      43    1225      80     131      67     139     808   48204    3611    6620    3310    5336   29327     300      25       4       6       2       4       8     152      10       2       2       1       1       3     148      15       3       4       2       2       5       0     185      53
 2003 303    21   13947   0.453   10968   0.349   13960   0.453   10975   0.350     49927     405   49522    3701    6765    3383    5487   30186     111      69       5       9       4       8      43    1225      80     131      67     139     808   48204    3611    6620    3310    5336   29327     294      25       4       6       2       4       8     147       9       2       2       1       1       3     148      15       3       4       2       2       5       0     189      55
 2003 304    22   13951   0.453   10968   0.349   13963   0.453   10974   0.349     49919     398   49520    3701    6765    3383    5486   30185     114      69       5       9       4       8      43    1225      81     131      67     139     807   48203    3611    6620    3310    5336   29326     284      24       4       6       2       4       8     137       9       2       2       1       1       3     147      15       3       4       1       2       5       0     195      57
 2003 305    23   13952   0.453   10967   0.349   13964   0.453   10973   0.349     49911     391   49519    3702    6764    3383    5486   30184     115      68       5       9       4       8      43    1226      82     131      67     139     807   48202    3611    6619    3310    5336   29326     276      23       4       6       2       4       8     130       8       1       2       1       1       3     146      15       3       4       1       2       5       0     201      59
 2003 306    24   13953   0.453   10967   0.349   13965   0.453   10973   0.349     49903     385   49518    3702    6764    3383    5486   30183     116      68       5       8       4       8      43    1226      82     131      67     139     807   48202    3611    6619    3310    5336   29326     269      23       4       6       2       3       8     124       8       1       2       1       1       3     146      15       2       4       1       2       5       0     207      61
 2003 307    25   13954   0.453   10967   0.349   13965   0.453   10972   0.349     49897     380   49517    3703    6764    3382    5486   30182     116      68       5       8       4       8      43    1226      83     131      67     139     807   48201    3611    6619    3310    5336   29325     263      22       4       5       2       3       7     118       7       1       2       1       1       2     145      15       2       4       1       2       5       0     211      62
 2003 308    26   13954   0.453   10966   0.349   13965   0.453   10972   0.349     49891     375   49516    3703    6763    3382    5485   30182     117      68       5       8       4       8      43    1227      84     131      67     139     807   48200    3611    6619    3310    5336   29325     259      21       4       5       2       3       7     114       7       1       2       1       1       2     145      15       2       4       1       2       5       0     215      64
 2003 309    27   13955   0.453   10966   0.349   13966   0.453   10971   0.349     49886     372   49515    3704    6763    3382    5485   30181     117      67       5       8       4       8      43    1227      84     131      67     139     806   48200    3611    6619    3309    5336   29325     255      21       4       5       2       3       7     110       6       1       1       1       1       2     144      15       2       4       1       2       5       0     219      66
 2003 310    28   13955   0.453   10966   0.349   13966   0.453   10971   0.349     49882     368   49513    3704    6763    3382    5485   30180     117      67       5       8       4       7      43    1227      85     131      67     139     806   48199    3611    6619    3309    5336   29324     251      21       4       5       2       3       7     107       6       1       1       0       1       2     144      15       2       4       1       2       5       0     221      68
 2003 311    29   13957   0.453   10965   0.349   13967   0.453   10970   0.349     49876     364   49512    3704    6762    3382    5485   30179     119      67       5       8       4       7      43    1227      85     131      67     139     806   48198    3611    6619    3309    5335   29324     245      20       4       5       2       3       7     101       5       1       1       0       1       2     143      15       2       4       1       2       5       0     226      70
 2003 312    30   13957   0.453   10965   0.349   13967   0.453   10970   0.349     49869     358   49511    3705    6762    3382    5484   30178     119      67       5       8       4       7      42    1227      86     130      67     139     806   48198    3611    6619    3309    5335   29323     239      20       3       5       2       3       7      96       5       1       1       0       1       2     143      15       2       4       1       2       5       0     231      71
 2003 313    31   13958   0.453   10964   0.349   13968   0.454   10969   0.349     49862     352   49510    3705    6762    3382    5484   30177     120      66       5       8       4       7      42    1228      86     130      67     139     805   48197    3611    6619    3309    5335   29323     232      19       3       5       2       3       6      90       5       1       1       0       1       2     142      14       2       4       1       2       5       0     236      73
 2003 314    32   13958   0.453   10964   0.349   13968   0.454   10969   0.349     49855     346   49509    3706    6761    3381    5484   30176     120      66       5       8       4       7      42    1228      87     130      67     139     805   48196    3611    6618    3309    5335   29323     227      19       3       5       2       3       6      86       4       1       1       0       1       2     141      14       2       4       1       2       5       0     240      75
 2003 315    33   13958   0.453   10964   0.349   13968   0.454   10968   0.349     49849     342   49508    3707    6761    3381    5484   30175     119      66       5       8       4       7      42    1228      88     130      67     139     805   48195    3611    6618    3309    5335   29322     223      18       3       4       2       3       6      82       4       1       1       0       1       2     141      14       2       4       1       2       5       0     244      77
 2003 316    34   13958   0.453   10963   0.349   13967   0.453   10968   0.349     49844     338   49506    3707    6761    3381    5483   30174     119      65       5       8       4       7      42    1229      88     130      67     138     805   48195    3611    6618    3309    5335   29322     219      18       3       4       2       3       6      79       4       1       1       0       1       1     140      14       2       4       1       2       5       0     248      79
 2003 317    35   13958   0.453   10963   0.349   13967   0.453   10967   0.349     49840     335   49505    3707    6761    3381    5483   30173     119      65       5       8       4       7      42    1229      89     130      67     138     804   48194    3611    6618    3309    5335   29321     216      18       3       4       2       3       6      76       4       1       1       0       0       1     140      14       2       4       1       2       5       0     250      81
 2003 318    36   13958   0.453   10962   0.349   13967   0.453   10967   0.349     49836     332   49504    3708    6760    3381    5483   30172     118      65       5       8       4       7      42    1229      89     130      67     138     804   48193    3611    6618    3309    5335   29321     213      17       3       4       2       3       6      74       3       1       1       0       0       1     140      14       2       4       1       2       5       0     253      82
 2003 319    37   13957   0.453   10962   0.349   13966   0.453   10966   0.349     49832     329   49502    3708    6760    3381    5482   30171     118      64       5       8       4       7      42    1229      90     130      67     138     804   48192    3611    6618    3309    5335   29320     211      17       3       4       2       3       6      72       3       1       1       0       0       1     139      14       2       3       1       2       5       0     255      84
 2003 320    38   13957   0.453   10962   0.349   13966   0.453   10966   0.349     49828     327   49501    3708    6760    3380    5482   30170     118      64       5       8       4       7      41    1229      90     130      67     138     804   48192    3611    6618    3309    5335   29320     209      17       3       4       2       3       6      70       3       1       1       0       0       1     139      14       2       3       1       2       5       0     257      86
 2003 321    39   13957   0.453   10961   0.349   13965   0.453   10965   0.349     49824     325   49500    3709    6759    3380    5482   30169     117      64       5       8       4       7      41    1228      90     130      66     138     803   48191    3611    6618    3309    5334   29319     207      16       3       4       2       2       5      69       3       1       1       0       0       1     139      14       2       3       1       2       4       0     259      88
 2003 322    40   13956   0.453   10961   0.349   13965   0.453   10965   0.349     49821     323   49498    3709    6759    3380    5482   30168     117      64       5       7       3       7      41    1228      91     130      66     138     803   48190    3611    6618    3309    5334   29319     206      16       3       4       2       2       5      68       3       1       1       0       0       1     138      14       2       3       1       2       4       0     260      90
 2003 323    41   13956   0.453   10960   0.349   13964   0.453   10964   0.349     49819     322   49497    3709    6759    3380    5481   30167     117      63       5       7       3       7      41    1228      91     130      66     138     803   48189    3611    6617    3309    5334   29318     205      16       3       4       1       2       5      67       2       1       1       0       0       1     138      14       2       3       1       2       4       0     261      91
 2003 324    42   13956   0.453   10960   0.349   13964   0.453   10964   0.349     49816     321   49495    3709    6759    3380    5481   30166     117      63       5       7       3       7      41    1228      91     130      66     138     802   48188    3611    6617    3309    5334   29318     204      16       3       4       1       2       5      66       2       1       0       0       0       1     138      13       2       3       1       2       4       0     262      93
 2003 325    43   13955   0.453   10959   0.349   13963   0.453   10963   0.349     49814     320   49493    3709    6758    3380    5481   30165     117      63       5       7       3       7      41    1228      91     130      66     138     802   48188    3611    6617    3309    5334   29317     204      16       3       4       1       2       5      66       2       1       0       0       0       1     138      13       2       3       1       2       4       0     262      95
 2003 326    44   13955   0.453   10959   0.349   13963   0.453   10963   0.349     49812     320   49492    3709    6758    3380    5481   30164     116      62       5       7       3       7      41    1227      91     130      66     138     802   48187    3611    6617    3308    5334   29317     203      15       3       4       1       2       5      65       2       1       0       0       0       1     138      13       2       3       1       2       4       0     263      96
 2003 327    45   13954   0.453   10959   0.349   13962   0.453   10962   0.349     49810     319   49490    3709    6758    3379    5480   30163     116      62       5       7       3       6      40    1227      91     130      66     138     801   48186    3610    6617    3308    5334   29316     203      15       3       4       1       2       5      65       2       1       0       0       0       1     138      13       2       3       1       2       4       0     263      98
 2003 328    46   13954   0.453   10958   0.349   13962   0.453   10962   0.349     49808     319   49489    3709    6757    3379    5480   30162     116      62       5       7       3       6      40    1226      91     130      66     138     801   48185    3610    6617    3308    5334   29316     203      15       3       4       1       2       5      65       2       1       0       0       0       1     138      13       2       3       1       2       4       0     263     100
 2003 329    47   13954   0.453   10958   0.349   13962   0.453   10961   0.349     49806     319   49487    3710    6757    3379    5480   30161     116      61       5       7       3       6      40    1226      91     130      66     138     801   48185    3610    6617    3308    5334   29315     203      15       3       4       1       2       5      65       2       1       0       0       0       1     138      13       2       3       1       2       4       0     264     101
 2003 330    48   13953   0.453   10957   0.349   13961   0.453   10961   0.349     49804     319   49485    3710    6757    3379    5480   30160     116      61       5       7       3       6      40    1226      91     130      66     138     801   48184    3610    6617    3308    5334   29315     203      15       3       4       1       2       5      65       2       1       0       0       0       0     138      13       2       3       1       2       4       0     264     103
 2003 331    49   13953   0.453   10957   0.349   13961   0.453   10960   0.349     49802     319   49484    3710    6757    3379    5479   30159     116      61       5       7       3       6      40    1225      92     130      66     138     800   48183    3610    6617    3308    5334   29314     202      14       3       4       1       2       5      64       2       1       0       0       0       0     138      13       2       3       1       2       4       0     264     105
 2003 332    50   13953   0.453   10956   0.349   13960   0.453   10960   0.349     49801     318   49482    3710    6757    3379    5479   30158     116      61       5       7       3       6      40    1225      92     130      66     137     800   48182    3610    6617    3308    5333   29314     202      14       3       3       1       2       5      64       2       1       0       0       0       0     138      13       2       3       1       2       4       0     264     106
 2003 333    51   13952   0.453   10956   0.349   13960   0.453   10960   0.349     49799     318   49481    3710    6756    3379    5479   30157     116      60       5       7       3       6      40    1224      92     130      66     137     800   48182    3610    6616    3308    5333   29313     202      14       3       3       1       2       4      64       1       1       0       0       0       0     138      13       2       3       1       2       4       0     264     108
 2003 334    52   13952   0.453   10956   0.349   13960   0.453   10959   0.349     49797     318   49479    3710    6756    3378    5479   30156     116      60       5       7       3       6      39    1224      92     130      66     137     799   48181    3610    6616    3308    5333   29313     202      14       3       3       1       2       4      64       1       1       0       0       0       0     138      13       2       3       1       2       4       0     264     109
 2003 335    53   13952   0.453   10955   0.349   13959   0.453   10959   0.349     49795     318   49477    3710    6756    3378    5479   30155     116      60       5       7       3       6      39    1224      92     129      66     137     799   48180    3610    6616    3308    5333   29312     202      14       3       3       1       2       4      64       1       1       0       0       0       0     138      13       2       3       1       2       4       0     264     111
 2003 336    54   13951   0.453   10955   0.349   13959   0.453   10958   0.349     49794     318   49476    3710    6756    3378    5478   30154     116      60       5       7       3       6      39    1223      92     129      66     137     799   48179    3610    6616    3308    5333   29312     201      14       3       3       1       2       4      64       1       1       0       0       0       0     138      13       2       3       1       2       4       0     265     113
 2003 337    55   13951   0.453   10954   0.349   13959   0.453   10958   0.349     49792     317   49474    3710    6755    3378    5478   30153     116      59       5       7       3       6      39    1223      92     129      66     137     798   48179    3610    6616    3308    5333   29311     201      14       3       3       1       2       4      64       1       1       0       0       0       0     138      12       2       3       1       2       4       0     265     114
 2003 338    56   13951   0.453   10954   0.349   13958   0.453   10957   0.349     49790     317   49473    3710    6755    3378    5478   30152     116      59       5       7       3       6      39    1222      92     129      66     137     798   48178    3610    6616    3308    5333   29311     201      14       3       3       1       2       4      63       1       1       0       0       0       0     138      12       2       3       1       2       4       0     265     116
 2003 339    57   13951   0.453   10953   0.349   13958   0.453   10957   0.349     49788     317   49471    3710    6755    3378    5478   30151     116      59       5       7       3       6      39    1222      92     129      66     137     798   48177    3610    6616    3308    5333   29310     201      13       3       3       1       2       4      63       1       1       0       0       0       0     138      12       2       3       1       2       4       0     265     117
 2003 340    58   13950   0.453   10953   0.349   13958   0.453   10956   0.349     49787     317   49470    3710    6755    3378    5477   30150     116      59       5       7       3       6      39    1221      92     129      66     137     798   48176    3610    6616    3308    5333   29310     201      13       3       3       1       2       4      63       1       1       0       0       0       0     138      12       2       3       1       2       4       0     265     119
 2003 341    59   13950   0.453   10953   0.349   13957   0.453   10956   0.349     49785     317   49468    3710    6755    3377    5477   30149     116      58       5       6       3       6      39    1221      92     129      66     137     797   48176    3610    6616    3308    5333   29309     201      13       3       3       1       2       4      63       1       1       0       0       0       0     138      12       2       3       1       2       4       0     265     120
 2003 342    60   13950   0.453   10952   0.349   13957   0.453   10955   0.349     49784     317   49467    3710    6754    3377    5477   30148     116      58       5       6       3       6      38    1221      92     129      66     137     797   48175    3610    6616    3307    5332   29309     200      13       3       3       1       2       4      63       1       1       0       0       0       0     138      12       2       3       1       2       4       0     266     122
 2003 343    61   13949   0.453   10952   0.349   13957   0.453   10955   0.349     49782     316   49466    3710    6754    3377    5477   30148     116      58       5       6       3       6      38    1220      92     129      66     137     797   48174    3610    6616    3307    5332   29308     200      13       3       3       1       2       4      63       1       1       0       0       0       0     138      12       2       3       1       2       4       0     266     123
 2003 344    62   13949   0.453   10951   0.349   13956   0.453   10955   0.349     49780     316   49464    3710    6754    3377    5477   30147     116      58       5       6       3       6      38    1220      92     129      66     137     796   48174    3610    6615    3307    5332   29308     200      13       3       3       1       2       4      63       1       1       0       0       0       0     138      12       2       3       1       2       4       0     266     125
 2003 345    63   13949   0.453   10951   0.349   13956   0.453   10954   0.349     49779     316   49463    3710    6754    3377    5476   30146     116      58       5       6       3       6      38    1219      92     129      66     137     796   48173    3610    6615    3307    5332   29307     200      13       3       3       1       2       4      62       1       1       0       0       0       0     138      12       2       3       1       2       4       0     266     126
 2003 346    64   13949   0.453   10951   0.349   13956   0.453   10954   0.349     49777     316   49461    3710    6754    3377    5476   30145     116      57       5       6       3       6      38    1219      92     129      66     137     796   48172    3610    6615    3307    5332   29307     200      13       3       3       1       2       4      62       1       1       0       0       0       0     138      12       2       3       1       2       4       0     266     128
 2003 347    65   13948   0.453   10950   0.349   13955   0.453   10953   0.349     49775     316   49460    3710    6753    3377    5476   30144     116      57       5       6       3       6      38    1219      92     129      66     137     795   48171    3610    6615    3307    5332   29307     200      13       3       3       1       2       4      62       1       1       0       0       0       0     137      12       2       3       1       2       4       0     266     129
 2003 348    66   13948   0.453   10950   0.349   13955   0.453   10953   0.349     49774     315   49458    3710    6753    3377    5476   30143     116      57       5       6       3       5      38    1218      92     129      66     136     795   48171    3610    6615    3307    5332   29306     199      13       3       3       1       2       4      62       1       1       0       0       0       0     137      12       2       3       1       2       4       0     266     131
 2003 349    67   13948   0.453   10949   0.349   13955   0.453   10952   0.349     49772     315   49457    3710    6753    3377    5475   30142     116      57       5       6       3       5      38    1218      92     129      66     136     795   48170    3610    6615    3307    5332   29306     199      13       3       3       1       2       4      62       1       1       0       0       0       0     137      12       2       3       1       2       4       0     267     132
 2003 350    68   13948   0.453   10949   0.349   13955   0.453   10952   0.349     49771     315   49456    3710    6753    3376    5475   30141     116      57       5       6       3       5      38    1217      92     129      66     136     795   48169    3610    6615    3307    5332   29305     199      12       3       3       1       2       4      62       1       1       0       0       0       0     137      12       2       3       1       2       4       0     267     133
 2003 351    69   13947   0.453   10949   0.349   13954   0.453   10952   0.349     49769     315   49454    3710    6753    3376    5475   30140     116      56       5       6       3       5      38    1217      92     129      66     136     794   48169    3610    6615    3307    5332   29305     199      12       3       3       1       2       4      62       1       1       0       0       0       0     137      12       2       3       1       2       4       0     267     135
 2003 352    70   13947   0.453   10948   0.349   13954   0.453   10951   0.349     49768     315   49453    3710    6753    3376    5475   30139     116      56       5       6       3       5      37    1217      92     129      65     136     794   48168    3610    6615    3307    5332   29304     199      12       3       3       1       2       4      61       1       1       0       0       0       0     137      12       2       3       1       2       4       0     267     136
 2003 353    71   13947   0.453   10948   0.349   13954   0.453   10951   0.349     49766     314   49451    3710    6752    3376    5475   30138     116      56       5       6       3       5      37    1216      92     129      65     136     794   48167    3610    6615    3307    5331   29304     199      12       3       3       1       2       4      61       1       1       0       0       0       0     137      11       2       3       1       2       4       0     267     138
 2003 354    72   13947   0.453   10948   0.349   13953   0.453   10950   0.349     49764     314   49450    3710    6752    3376    5474   30137     116      56       5       6       3       5      37    1216      92     129      65     136     793   48166    3610    6615    3307    5331   29303     199      12       3       3       1       2       4      61       1       1       0       0       0       0     137      11       2       3       1       2       4       0     267     139
 2003 355    73   13946   0.453   10947   0.349   13953   0.453   10950   0.349     49763     314   49449    3710    6752    3376    5474   30136     116      56       5       6       3       5      37    1215      92     129      65     136     793   48166    3610    6615    3307    5331   29303     198      12       3       3       1       2       4      61       1       1       0       0       0       0     137      11       2       3       1       2       4       0     268     140
 2003 356    74   13946   0.453   10947   0.349   13953   0.453   10950   0.349     49761     314   49447    3710    6752    3376    5474   30136     116      55       5       6       3       5      37    1215      92     129      65     136     793   48165    3610    6615    3307    5331   29302     198      12       3       3       1       2       4      61       1       1       0       0       0       0     137      11       2       3       1       2       4       0     268     142
 2003 357    75   13946   0.453   10946   0.349   13953   0.453   10949   0.349     49760     314   49446    3710    6752    3376    5474   30135     116      55       5       6       3       5      37    1214      92     129      65     136     792   48164    3610    6614    3307    5331   29302     198      12       3       3       1       2       4      61       1       1       0       0       0       0     137      11       2       3       1       2       3       0     268     143
 2003 358    76   13946   0.453   10946   0.349   13952   0.453   10949   0.349     49758     314   49445    3710    6752    3375    5474   30134     116      55       5       6       3       5      37    1214      92     129      65     136     792   48164    3610    6614    3307    5331   29301     198      12       3       3       1       2       4      61       1       1       0       0       0       0     137      11       2       3       1       2       3       0     268     144
 2003 359    77   13945   0.453   10946   0.349   13952   0.453   10948   0.349     49757     313   49444    3710    6752    3375    5473   30133     116      55       5       6       3       5      37    1214      92     129      65     136     792   48163    3610    6614    3307    5331   29301     198      12       3       3       1       2       3      61       1       1       0       0       0       0     137      11       2       3       1       2       3       0     268     146
 2003 360    78   13945   0.453   10945   0.349   13952   0.453   10948   0.349     49756     313   49442    3710    6751    3375    5473   30132     116      55       5       6       3       5      37    1213      92     128      65     136     792   48162    3610    6614    3306    5331   29300     198      12       3       3       1       2       3      60       1       1       0       0       0       0     137      11       2       3       1       2       3       0     268     147
 2003 361    79   13945   0.453   10945   0.349   13952   0.453   10948   0.349     49754     313   49441    3710    6751    3375    5473   30131     116      55       5       6       3       5      37    1213      92     128      65     136     791   48162    3610    6614    3306    5331   29300     197      12       3       3       1       2       3      60       1       1       0       0       0       0     137      11       2       3       1       2       3       0     268     148
 2003 362    80   13945   0.453   10945   0.349   13951   0.453   10947   0.349     49753     313   49440    3710    6751    3375    5473   30130     116      55       5       6       3       5      37    1212      92     128      65     136     791   48161    3610    6614    3306    5331   29299     197      12       3       3       1       2       3      60       1       1       0       0       0       0     137      11       2       3       1       2       3       0     269     150
 2003 363    81   13945   0.453   10944   0.349   13951   0.453   10947   0.349     49751     313   49439    3710    6751    3375    5473   30130     116      54       5       6       3       5      36    1212      92     128      65     135     791   48160    3610    6614    3306    5331   29299     197      12       3       3       1       2       3      60       1       1       0       0       0       0     137      11       2       3       1       2       3       0     269     151
 2003 364    82   13944   0.453   10944   0.349   13951   0.453   10947   0.349     49750     313   49437    3710    6751    3375    5473   30129     116      54       5       6       3       5      36    1212      92     128      65     135     790   48160    3610    6614    3306    5331   29299     197      12       3       3       1       2       3      60       1       1       0       0       0       0     137      11       2       3       1       2       3       0     269     152
 2003 365    83   13944   0.453   10944   0.349   13951   0.453   10946   0.349     49749     312   49436    3710    6751    3375    5472   30128     116      54       5       6       3       5      36    1211      92     128      65     135     790   48159    3610    6614    3306    5330   29298     197      12       3       3       1       2       3      60       1       1       0       0       0       0     137      11       2       3       1       2       3       0     269     153
 2004 001    84   13944   0.453   10943   0.349   13951   0.453   10946   0.349     49747     312   49435    3710    6751    3375    5472   30127     116      54       5       6       3       5      36    1211      93     128      65     135     790   48159    3610    6614    3306    5330   29298     197      11       3       3       1       2       3      60       1       1       0       0       0       0     137      11       2       3       1       2       3       0     269     154
 2004 002    85   13944   0.453   10943   0.349   13950   0.453   10946   0.349     49746     312   49434    3710    6751    3375    5472   30126     116      54       5       6       2       5      36    1211      93     128      65     135     790   48158    3610    6614    3306    5330   29297     197      11       3       3       1       2       3      60       1       1       0       0       0       0     137      11       2       3       1       2       3       0     269     156
 2004 003    86   13944   0.453   10943   0.348   13950   0.453   10945   0.349     49744     312   49433    3710    6750    3374    5472   30125     116      54       5       6       2       5      36    1210      93     128      65     135     789   48157    3610    6614    3306    5330   29297     196      11       3       3       1       2       3      59       1       1       0       0       0       0     137      11       2       3       1       2       3       0     269     157
 2004 004    87   13943   0.453   10942   0.348   13950   0.453   10945   0.349     49743     312   49431    3710    6750    3374    5472   30125     115      54       5       6       2       5      36    1210      93     128      65     135     789   48157    3610    6614    3306    5330   29296     196      11       3       3       1       2       3      59       1       1       0       0       0       0     137      11       2       3       1       2       3       0     270     158
 2004 005    88   13943   0.453   10942   0.348   13950   0.453   10944   0.349     49742     312   49430    3710    6750    3374    5471   30124     115      53       5       6       2       5      36    1209      93     128      65     135     789   48156    3610    6614    3306    5330   29296     196      11       3       3       1       2       3      59       1       1       0       0       0       0     137      11       2       3       1       2       3       0     270     159
 2004 006    89   13943   0.453   10942   0.348   13949   0.453   10944   0.349     49740     311   49429    3710    6750    3374    5471   30123     115      53       5       6       2       5      36    1209      93     128      65     135     788   48155    3610    6614    3306    5330   29295     196      11       3       3       1       2       3      59       1       1       0       0       0       0     137      11       2       3       1       1       3       0     270     161
 2004 007    90   13943   0.453   10941   0.348   13949   0.453   10944   0.349     49739     311   49428    3710    6750    3374    5471   30122     115      53       5       6       2       5      36    1209      93     128      65     135     788   48155    3610    6614    3306    5330   29295     196      11       3       3       1       1       3      59       1       1       0       0       0       0     137      11       2       3       1       1       3       0     270     162
 2004 008    91   13943   0.453   10941   0.348   13949   0.453   10943   0.349     49737     311   49426    3711    6750    3374    5471   30121     115      53       5       6       2       5      36    1208      93     128      65     135     788   48154    3610    6614    3306    5330   29294     196      11       3       3       1       1       3      59       1       1       0       0       0       0     137      10       2       3       1       1       3       0     270     163
 2004 009    92   13942   0.453   10940   0.348   13949   0.453   10943   0.349     49736     311   49425    3711    6750    3374    5471   30120     115      53       5       6       2       5      36    1208      93     128      65     135     787   48153    3610    6613    3306    5330   29294     195      11       3       3       1       1       3      59       1       1       0       0       0       0     137      10       2       3       1       1       3       0     270     165
 2004 010    93   13942   0.453   10940   0.348   13949   0.453   10943   0.348     49734     311   49424    3711    6750    3374    5471   30119     115      53       5       6       2       5      36    1207      93     128      65     135     787   48153    3610    6613    3306    5330   29293     195      11       3       3       1       1       3      59       1       1       0       0       0       0     137      10       2       3       1       1       3       0     270     166
 2004 011    94   13942   0.453   10940   0.348   13948   0.453   10942   0.348     49733     310   49422    3711    6749    3374    5470   30118     115      53       5       6       2       5      35    1207      93     128      65     135     787   48152    3610    6613    3306    5330   29293     195      11       3       3       1       1       3      58       1       1       0       0       0       0     137      10       2       3       1       1       3       0     271     167
 2004 012    95   13942   0.453   10939   0.348   13948   0.453   10942   0.348     49731     310   49421    3711    6749    3374    5470   30117     115      53       5       5       2       5      35    1206      93     128      65     135     786   48151    3610    6613    3306    5329   29293     195      11       3       3       1       1       3      58       1       1       0       0       0       0     137      10       2       3       1       1       3       0     271     169
 2004 013    96   13942   0.453   10939   0.348   13948   0.453   10941   0.348     49730     310   49420    3711    6749    3373    5470   30117     115      52       5       5       2       5      35    1206      93     128      65     134     786   48151    3610    6613    3306    5329   29292     195      11       3       3       1       1       3      58       1       1       0       0       0       0     137      10       2       3       1       1       3       0     271     170
 2004 014    97   13941   0.453   10939   0.348   13948   0.453   10941   0.348     49729     310   49419    3711    6749    3373    5470   30116     115      52       5       5       2       5      35    1206      93     128      65     134     786   48150    3610    6613    3305    5329   29292     195      11       3       3       1       1       3      58       1       1       0       0       0       0     137      10       2       3       1       1       3       0     271     171
 2004 015    98   13941   0.453   10938   0.348   13948   0.453   10941   0.348     49727     310   49418    3711    6749    3373    5470   30115     115      52       5       5       2       5      35    1205      93     128      65     134     786   48149    3610    6613    3305    5329   29291     195      11       3       3       1       1       3      58       1       1       0       0       0       0     137      10       2       3       1       1       3       0     271     172
 2004 016    99   13941   0.453   10938   0.348   13947   0.453   10940   0.348     49726     310   49416    3711    6749    3373    5469   30114     115      52       5       5       2       5      35    1205      93     128      65     134     785   48149    3610    6613    3305    5329   29291     194      11       3       3       1       1       3      58       1       1       0       0       0       0     137      10       2       3       1       1       3       0     271     174
 2004 017   100   13941   0.453   10938   0.348   13947   0.453   10940   0.348     49725     309   49415    3711    6749    3373    5469   30113     115      52       5       5       2       5      35    1204      93     128      65     134     785   48148    3610    6613    3305    5329   29290     194      11       3       3       1       1       3      58       1       1       0       0       0       0     137      10       2       3       1       1       3       0     272     175
 2004 018   101   13941   0.453   10937   0.348   13947   0.453   10940   0.348     49723     309   49414    3711    6749    3373    5469   30112     115      52       5       5       2       5      35    1204      93     128      65     134     785   48147    3610    6613    3305    5329   29290     194      11       3       3       1       1       3      57       1       1       0       0       0       0     137      10       2       3       1       1       3       0     272     176
 2004 019   102   13941   0.453   10937   0.348   13947   0.453   10939   0.348     49722     309   49413    3711    6749    3373    5469   30111     115      52       5       5       2       5      35    1204      93     128      64     134     784   48147    3610    6613    3305    5329   29289     194      11       3       3       1       1       3      57       1       1       0       0       0       0     137      10       2       3       1       1       3       0     272     177
 2004 020   103   13940   0.453   10937   0.348   13947   0.453   10939   0.348     49720     309   49412    3711    6749    3373    5469   30111     115      52       5       5       2       5      35    1203      93     128      64     134     784   48146    3610    6613    3305    5329   29289     194      11       3       3       1       1       3      57       1       1       0       0       0       0     137      10       2       3       1       1       3       0     272     178
 2004 021   104   13942   0.453   10936   0.348   13948   0.453   10939   0.348     49717     307   49410    3711    6748    3373    5469   30110     117      52       5       5       2       5      35    1203      93     128      64     134     784   48145    3610    6613    3305    5329   29288     190      10       3       3       1       1       3      54       1       0       0       0       0       0     136      10       2       3       1       1       3       0     274     180
 2004 022   105   13942   0.453   10936   0.348   13948   0.453   10938   0.348     49711     302   49409    3711    6748    3373    5468   30109     116      51       5       5       2       5      35    1203      94     128      64     134     783   48144    3610    6613    3305    5329   29288     186      10       3       3       1       1       3      50       0       0       0       0       0       0     135      10       2       3       1       1       3       0     278     182
 2004 023   106   13941   0.453   10935   0.348   13947   0.453   10938   0.348     49705     297   49408    3712    6748    3372    5468   30108     115      51       4       5       2       5      35    1204      95     128      64     134     783   48144    3610    6613    3305    5328   29287     182      10       3       3       1       1       3      47       0       0       0       0       0       0     134      10       2       3       1       1       3       0     282     183
 2004 024   107   13940   0.453   10935   0.348   13946   0.453   10937   0.348     49701     293   49408    3713    6748    3372    5468   30107     114      51       4       5       2       4      35    1204      96     127      64     134     783   48143    3610    6612    3305    5328   29287     179      10       3       3       1       1       3      45       0       0       0       0       0       0     134      10       2       2       1       1       3       0     285     185
 2004 025   108   13939   0.453   10935   0.348   13945   0.453   10937   0.348     49697     290   49407    3713    6747    3372    5468   30106     113      51       4       5       2       4      35    1204      96     127      64     134     782   48142    3610    6612    3305    5328   29286     177      10       3       2       1       1       3      43       0       0       0       0       0       0     133      10       2       2       1       1       3       0     288     186
 2004 026   109   13938   0.453   10934   0.348   13944   0.453   10937   0.348     49693     287   49406    3714    6747    3372    5468   30105     112      51       4       5       2       4      35    1204      97     127      64     134     782   48141    3610    6612    3305    5328   29286     175      10       3       2       1       1       3      42       0       0       0       0       0       0     133      10       2       2       1       1       3       0     290     188
 2004 027   110   13938   0.453   10934   0.348   13944   0.453   10936   0.348     49690     285   49405    3714    6747    3372    5467   30105     111      51       4       5       2       4      35    1204      97     127      64     134     782   48141    3610    6612    3305    5328   29286     173      10       3       2       1       1       3      41       0       0       0       0       0       0     133       9       2       2       1       1       3       0     292     189
 2004 028   111   13937   0.453   10934   0.348   13943   0.453   10936   0.348     49687     283   49404    3714    6747    3372    5467   30104     111      51       4       5       2       4      34    1204      97     127      64     133     781   48140    3610    6612    3305    5328   29285     172      10       3       2       1       1       3      39       0       0       0       0       0       0     132       9       2       2       1       1       3       0     294     191
 2004 029   112   13937   0.453   10933   0.348   13942   0.453   10936   0.348     49684     281   49403    3715    6747    3372    5467   30103     110      51       4       5       2       4      34    1204      98     127      64     133     781   48139    3610    6612    3305    5328   29285     170      10       2       2       1       1       3      38       0       0       0       0       0       0     132       9       2       2       1       1       3       0     295     192
 2004 030   113   13936   0.452   10933   0.348   13942   0.453   10935   0.348     49681     279   49402    3715    6746    3372    5467   30102     110      50       4       5       2       4      34    1203      98     127      64     133     781   48138    3610    6612    3305    5328   29284     169      10       2       2       1       1       3      38       0       0       0       0       0       0     132       9       2       2       1       1       3       0     296     194
 2004 031   114   13935   0.452   10933   0.348   13941   0.453   10935   0.348     49678     278   49401    3715    6746    3372    5467   30101     109      50       4       5       2       4      34    1203      98     127      64     133     780   48137    3610    6612    3305    5328   29284     168      10       2       2       1       1       3      37       0       0       0       0       0       0     132       9       2       2       1       1       3       0     298     195
 2004 032   115   13935   0.452   10932   0.348   13941   0.453   10934   0.348     49676     276   49399    3715    6746    3371    5466   30100     109      50       4       5       2       4      34    1203      99     127      64     133     780   48137    3610    6612    3304    5328   29283     168      10       2       2       1       1       3      36       0       0       0       0       0       0     131       9       2       2       1       1       3       0     299     197
 2004 033   116   13934   0.452   10932   0.348   13940   0.453   10934   0.348     49674     276   49398    3715    6746    3371    5466   30099     108      50       4       5       2       4      34    1203      99     127      64     133     780   48136    3610    6611    3304    5328   29283     167       9       2       2       1       1       3      36       0       0       0       0       0       0     131       9       2       2       1       1       3       0     299     198
 2004 034   117   13934   0.452   10932   0.348   13939   0.453   10934   0.348     49672     275   49397    3716    6746    3371    5466   30098     108      50       4       5       2       4      34    1202      99     127      64     133     779   48135    3610    6611    3304    5327   29282     167       9       2       2       1       1       3      36       0       0       0       0       0       0     131       9       2       2       1       1       3       0     300     199
 2004 035   118   13933   0.452   10931   0.348   13939   0.453   10933   0.348     49670     274   49395    3716    6745    3371    5466   30097     108      50       4       5       2       4      34    1202      99     127      64     133     779   48134    3610    6611    3304    5327   29282     166       9       2       2       1       1       3      35       0       0       0       0       0       0     131       9       2       2       1       1       3       0     300     201
 2004 036   119   13933   0.452   10931   0.348   13939   0.453   10933   0.348     49668     274   49394    3716    6745    3371    5466   30097     108      50       4       5       2       4      34    1201      99     127      64     133     779   48134    3610    6611    3304    5327   29281     166       9       2       2       1       1       3      35       0       0       0       0       0       0     131       9       2       2       1       1       3       0     300     202
 2004 037   120   13933   0.452   10931   0.348   13938   0.453   10933   0.348     49667     274   49393    3716    6745    3371    5466   30096     108      50       4       5       2       4      34    1201      99     127      64     133     778   48133    3610    6611    3304    5327   29281     166       9       2       2       1       1       3      35       0       0       0       0       0       0     131       9       2       2       1       1       3       0     301     204
 2004 038   121   13932   0.452   10930   0.348   13938   0.453   10932   0.348     49665     274   49392    3716    6745    3371    5465   30095     108      50       4       5       2       4      34    1201      99     127      64     133     778   48132    3610    6611    3304    5327   29280     166       9       2       2       1       1       3      35       0       0       0       0       0       0     131       9       2       2       1       1       3       0     301     205
 2004 039   122   13932   0.452   10930   0.348   13938   0.453   10932   0.348     49664     273   49390    3716    6745    3371    5465   30094     108      50       4       5       2       4      34    1200      99     127      64     133     778   48132    3610    6611    3304    5327   29280     166       9       2       2       1       1       3      35       0       0       0       0       0       0     131       9       2       2       1       1       3       0     301     206
 2004 040   123   13932   0.452   10930   0.348   13937   0.453   10932   0.348     49663     273   49389    3716    6744    3371    5465   30093     108      49       4       5       2       4      34    1200      99     127      64     133     778   48131    3610    6611    3304    5327   29279     166       9       2       2       1       1       3      35       0       0       0       0       0       0     131       9       2       2       1       1       3       0     301     207
 2004 041   124   13932   0.452   10929   0.348   13937   0.453   10931   0.348     49661     273   49388    3716    6744    3371    5465   30093     107      49       4       5       2       4      34    1199      99     126      64     133     777   48130    3610    6611    3304    5327   29279     166       9       2       2       1       1       3      35       0       0       0       0       0       0     131       9       2       2       1       1       3       0     301     208
 2004 042   125   13931   0.452   10929   0.348   13937   0.453   10931   0.348     49660     273   49387    3716    6744    3370    5465   30092     107      49       4       5       2       4      34    1199      99     126      64     132     777   48130    3610    6611    3304    5327   29278     166       9       2       2       1       1       2      35       0       0       0       0       0       0     131       9       2       2       1       1       2       0     301     210
 2004 043   126   13931   0.452   10929   0.348   13937   0.453   10931   0.348     49659     273   49386    3716    6744    3370    5465   30091     107      49       4       5       2       4      34    1198      99     126      64     132     777   48129    3610    6611    3304    5327   29278     166       9       2       2       1       1       2      35       0       0       0       0       0       0     131       9       2       2       1       1       2       0     301     211
 2004 044   127   13931   0.452   10928   0.348   13936   0.453   10930   0.348     49657     273   49384    3716    6744    3370    5464   30090     107      49       4       5       2       4      34    1198      99     126      64     132     776   48128    3610    6610    3304    5327   29277     165       9       2       2       1       1       2      35       0       0       0       0       0       0     131       9       2       2       1       1       2       0     301     212
 2004 045   128   13931   0.452   10928   0.348   13936   0.452   10930   0.348     49656     273   49383    3716    6744    3370    5464   30089     107      49       4       5       2       4      34    1198      99     126      64     132     776   48127    3610    6610    3304    5327   29277     165       9       2       2       1       1       2      35       0       0       0       0       0       0     131       9       2       2       1       1       2       0     302     214
 2004 046   129   13930   0.452   10928   0.348   13936   0.452   10929   0.348     49654     273   49382    3716    6743    3370    5464   30088     107      49       4       5       2       4      34    1197      99     126      64     132     776   48127    3610    6610    3304    5326   29277     165       9       2       2       1       1       2      34       0       0       0       0       0       0     131       9       2       2       1       1       2       0     302     215
 2004 047   130   13930   0.452   10927   0.348   13935   0.452   10929   0.348     49653     272   49380    3716    6743    3370    5464   30087     107      49       4       5       2       4      34    1197      99     126      63     132     775   48126    3610    6610    3304    5326   29276     165       9       2       2       1       1       2      34       0       0       0       0       0       0     131       9       2       2       1       1       2       0     302     216
 2004 048   131   13930   0.452   10927   0.348   13935   0.452   10929   0.348     49651     272   49379    3716    6743    3370    5464   30086     107      49       4       5       2       4      34    1196      99     126      63     132     775   48125    3610    6610    3304    5326   29275     165       9       2       2       1       1       2      34       0       0       0       0       0       0     131       8       2       2       1       1       2       0     302     218
 2004 049   132   13929   0.452   10926   0.348   13935   0.452   10928   0.348     49650     272   49377    3716    6743    3370    5463   30085     107      49       4       5       2       4      33    1196      99     126      63     132     775   48124    3610    6610    3303    5326   29275     165       9       2       2       1       1       2      34       0       0       0       0       0       0     131       8       2       2       1       1       2       0     302     219
 2004 050   133   13929   0.452   10926   0.348   13934   0.452   10928   0.348     49648     272   49376    3716    6743    3370    5463   30085     107      49       4       5       2       4      33    1195      99     126      63     132     774   48124    3610    6610    3303    5326   29274     165       9       2       2       1       1       2      34       0       0       0       0       0       0     131       8       2       2       1       1       2       0     302     221
 2004 051   134   13929   0.452   10926   0.348   13934   0.452   10928   0.348     49646     272   49375    3716    6743    3369    5463   30084     107      49       4       5       2       4      33    1195      99     126      63     132     774   48123    3610    6610    3303    5326   29274     165       9       2       2       1       1       2      34       0       0       0       0       0       0     131       8       2       2       1       1       2       0     302     222
 2004 052   135   13929   0.452   10925   0.348   13934   0.452   10927   0.348     49645     272   49373    3716    6742    3369    5463   30083     107      49       4       5       2       4      33    1194     100     126      63     132     774   48122    3610    6610    3303    5326   29273     165       9       2       2       1       1       2      34       0       0       0       0       0       0     131       8       2       2       1       1       2       0     302     223
 2004 053   136   13928   0.452   10925   0.348   13933   0.452   10927   0.348     49643     271   49372    3716    6742    3369    5463   30082     107      48       4       5       2       4      33    1194     100     126      63     132     773   48121    3610    6610    3303    5326   29273     164       9       2       2       1       1       2      34       0       0       0       0       0       0     131       8       2       2       1       1       2       0     303     225
 2004 054   137   13928   0.452   10925   0.348   13933   0.452   10926   0.348     49642     271   49371    3716    6742    3369    5462   30081     107      48       4       5       2       4      33    1193     100     126      63     132     773   48121    3610    6610    3303    5326   29272     164       9       2       2       1       1       2      34       0       0       0       0       0       0     131       8       2       2       1       1       2       0     303     226
 2004 055   138   13928   0.452   10924   0.348   13933   0.452   10926   0.348     49640     271   49369    3716    6742    3369    5462   30080     107      48       4       5       2       4      33    1193     100     126      63     132     773   48120    3610    6609    3303    5326   29272     164       8       2       2       1       1       2      34       0       0       0       0       0       0     131       8       2       2       1       1       2       0     303     228
 2004 056   139   13927   0.452   10924   0.348   13933   0.452   10926   0.348     49639     271   49368    3716    6742    3369    5462   30079     107      48       4       5       2       4      33    1192     100     126      63     131     772   48119    3610    6609    3303    5326   29271     164       8       2       2       1       1       2      34       0       0       0       0       0       0     131       8       2       2       1       1       2       0     303     229
 2004 057   140   13927   0.452   10923   0.348   13932   0.452   10925   0.348     49637     271   49367    3716    6742    3369    5462   30078     107      48       4       5       2       4      33    1192     100     126      63     131     772   48118    3610    6609    3303    5325   29271     164       8       2       2       1       1       2      34       0       0       0       0       0       0     130       8       2       2       1       1       2       0     303     230
 2004 058   141   13927   0.452   10923   0.348   13932   0.452   10925   0.348     49636     271   49365    3716    6741    3369    5462   30077     107      48       4       5       2       4      33    1191     100     126      63     131     772   48118    3610    6609    3303    5325   29270     164       8       2       2       1       1       2      33       0       0       0       0       0       0     130       8       2       2       1       1       2       0     303     232
 2004 059   142   13927   0.452   10923   0.348   13932   0.452   10924   0.348     49634     270   49364    3716    6741    3369    5462   30076     107      48       4       5       2       4      33    1191     100     126      63     131     771   48117    3610    6609    3303    5325   29270     164       8       2       2       1       1       2      33       0       0       0       0       0       0     130       8       2       2       1       1       2       0     303     233
 2004 060   143   13927   0.452   10922   0.348   13932   0.452   10924   0.348     49631     269   49362    3716    6741    3368    5461   30075     108      48       4       5       2       4      33    1190     100     125      63     131     771   48116    3610    6609    3303    5325   29269     161       8       2       2       1       1       2      31       0       0       0       0       0       0     130       8       2       2       1       1       2       0     305     235
 2004 061   144   13927   0.452   10922   0.348   13932   0.452   10924   0.348     49626     264   49362    3717    6741    3368    5461   30075     107      48       4       5       2       4      33    1191     101     125      63     131     771   48115    3610    6609    3303    5325   29269     157       8       2       2       1       1       2      29       0       0       0       0       0       0     129       8       2       2       1       1       2       0     309     237
 2004 062   145   13925   0.452   10922   0.348   13930   0.452   10923   0.348     49620     260   49361    3718    6740    3368    5461   30074     105      48       4       4       2       4      33    1191     102     125      63     131     770   48114    3610    6609    3303    5325   29268     155       8       2       2       1       1       2      27       0       0       0       0       0       0     128       8       2       2       1       1       2       0     312     238
 2004 063   146   13924   0.452   10921   0.348   13929   0.452   10923   0.348     49616     255   49360    3718    6740    3368    5461   30073     103      48       4       4       2       4      33    1191     102     125      63     131     770   48113    3610    6609    3303    5325   29268     152       8       2       2       1       1       2      25       0       0       0       0       0       0     127       8       2       2       1       1       2       0     315     240
 2004 064   147   13923   0.452   10921   0.348   13927   0.452   10923   0.348     49611     252   49360    3719    6740    3368    5461   30072     102      48       4       4       2       4      33    1192     103     125      63     131     770   48113    3609    6608    3303    5325   29268     150       8       2       2       1       1       2      23       0       0       0       0       0       0     127       8       2       2       1       1       2       0     318     241
 2004 065   148   13921   0.452   10921   0.348   13926   0.452   10922   0.348     49608     249   49359    3720    6740    3368    5460   30072     100      48       4       4       2       4      33    1192     104     125      63     131     769   48112    3609    6608    3302    5325   29267     149       8       2       2       1       1       2      22       0       0       0       0       0       0     126       8       2       2       1       1       2       0     321     242
 2004 066   149   13921   0.452   10920   0.348   13925   0.452   10922   0.348     49605     246   49358    3720    6740    3368    5460   30071      99      47       4       4       2       4      33    1192     104     125      63     131     769   48111    3609    6608    3302    5325   29267     147       8       2       2       1       1       2      22       0       0       0       0       0       0     126       8       2       2       1       1       2       0     322     244
 2004 067   150   13920   0.452   10920   0.348   13924   0.452   10922   0.348     49602     245   49358    3720    6739    3368    5460   30070      98      47       4       4       2       4      33    1192     105     125      63     131     769   48111    3609    6608    3302    5324   29266     146       8       2       2       1       1       2      21       0       0       0       0       0       0     125       8       2       2       1       1       2       0     324     245
 2004 068   151   13919   0.452   10920   0.348   13924   0.452   10921   0.348     49600     243   49357    3721    6739    3368    5460   30070      97      47       4       4       2       4      33    1192     105     125      63     131     769   48110    3609    6608    3302    5324   29266     145       8       2       2       1       1       2      20       0       0       0       0       0       0     125       8       2       2       1       1       2       0     325     246
 2004 069   152   13918   0.452   10919   0.348   13923   0.452   10921   0.348     49598     242   49356    3721    6739    3368    5460   30069      97      47       4       4       2       4      33    1192     105     125      63     130     768   48110    3609    6608    3302    5324   29266     145       8       2       2       1       1       2      20       0       0       0       0       0       0     125       8       2       2       1       1       2       0     326     247
 2004 070   153   13918   0.452   10919   0.348   13922   0.452   10921   0.348     49596     240   49355    3721    6739    3367    5460   30068      96      47       4       4       2       4      33    1192     106     125      63     130     768   48109    3609    6608    3302    5324   29265     144       8       2       2       1       1       2      19       0       0       0       0       0       0     125       7       2       2       1       1       2       0     327     248
 2004 071   154   13917   0.452   10919   0.348   13922   0.452   10920   0.348     49594     239   49354    3721    6739    3367    5459   30068      96      47       4       4       2       4      33    1191     106     125      63     130     768   48108    3609    6608    3302    5324   29265     143       8       2       2       1       1       2      19       0       0       0       0       0       0     124       7       2       2       1       1       2       0     328     249
 2004 072   155   13917   0.452   10918   0.348   13921   0.452   10920   0.348     49592     238   49353    3721    6738    3367    5459   30067      95      47       4       4       2       4      33    1191     106     125      63     130     768   48108    3609    6608    3302    5324   29265     143       8       2       2       1       1       2      19       0       0       0       0       0       0     124       7       2       2       1       1       2       0     329     250
 2004 073   156   13916   0.452   10918   0.348   13921   0.452   10920   0.348     49590     237   49352    3721    6738    3367    5459   30066      95      47       4       4       2       4      33    1191     106     125      63     130     767   48107    3609    6607    3302    5324   29264     143       7       2       2       1       1       2      18       0       0       0       0       0       0     124       7       2       2       1       1       2       0     329     252
 2004 074   157   13915   0.452   10918   0.348   13920   0.452   10919   0.348     49588     237   49351    3722    6738    3367    5459   30066      95      47       4       4       2       4      33    1191     106     125      62     130     767   48106    3609    6607    3302    5324   29264     142       7       2       2       1       1       2      18       0       0       0       0       0       0     124       7       2       2       1       1       2       0     330     253
[...]
 2004 255   338   14111   0.458   11036   0.351   14150   0.460   11057   0.352     49875     246   49629    3957    6773    3391    5522   29986      39      65       8      10       4       8      35    1516     340     155      86     193     744   47976    3598    6589    3293    5309   29187     207      71      12      19       8      12      20       0      26       3       7       4       5       8     207      45       9      12       5       7      12       0    1549     948
 2004 256   339   14111   0.458   11036   0.351   14151   0.460   11057   0.352     49875     245   49630    3958    6773    3391    5522   29986      38      66       8      10       5       8      35    1516     340     154      85     193     743   47976    3598    6589    3293    5309   29187     207      73      12      20       8      12      21       0      27       3       8       4       5       8     207      46       9      12       5       7      13       0    1550     950
 2004 257   340   14110   0.458   11036   0.351   14152   0.460   11058   0.352     49876     244   49632    3958    6774    3391    5522   29986      38      66       8      10       5       8      35    1516     340     154      85     193     743   47975    3598    6589    3293    5309   29186     206      75      12      20       9      12      22       0      28       3       8       4       5       9     206      47       9      13       5       7      13       0    1551     953
 2004 258   341   14110   0.458   11036   0.351   14153   0.460   11058   0.352     49877     243   49634    3959    6774    3392    5523   29987      38      67       8      10       5       8      36    1516     340     154      85     192     743   47974    3598    6589    3293    5309   29186     205      78      13      21       9      12      22       0      30       4       8       4       5       9     205      48       9      13       5       8      13       0    1552     955
 2004 259   342   14110   0.458   11036   0.351   14154   0.460   11058   0.352     49878     242   49636    3959    6775    3392    5523   29987      37      67       8      10       5       8      36    1515     340     154      85     192     743   47974    3598    6589    3293    5309   29185     204      80      13      22       9      13      23       0      31       4       8       4       5      10     204      49       9      13       5       8      14       0    1552     958
 2004 260   343   14110   0.458   11036   0.351   14155   0.460   11059   0.352     49879     241   49638    3960    6776    3392    5523   29988      37      67       8      10       5       9      36    1515     341     154      85     192     743   47973    3598    6589    3292    5309   29185     204      82      14      22      10      13      24       0      32       4       9       4       5      10     204      50      10      13       5       8      14       0    1553     960
 2004 261   344   14110   0.458   11036   0.351   14154   0.460   11058   0.352     49876     240   49636    3960    6775    3392    5523   29987      37      68       8      10       5       9      36    1515     341     154      85     192     742   47973    3597    6589    3292    5309   29185     203      80      13      22       9      13      23       0      31       4       8       4       5       9     203      50       9      13       5       8      14       0    1553     963
 2004 262   345   14109   0.458   11035   0.351   14153   0.460   11057   0.352     49872     239   49634    3960    6774    3392    5522   29986      36      68       8      10       5       9      36    1515     341     154      85     192     742   47972    3597    6589    3292    5309   29184     203      78      13      21       9      12      23       0      29       4       8       4       5       9     203      50       9      13       5       8      14       0    1554     965
 2004 263   346   14109   0.458   11035   0.351   14152   0.460   11057   0.352     49869     238   49632    3960    6774    3392    5522   29985      36      69       8      11       5       9      36    1515     341     154      85     192     742   47971    3597    6589    3292    5309   29184     202      76      13      21       9      12      22       0      27       3       7       4       4       8     202      49       9      13       5       8      14       0    1555     968
 2004 264   347   14109   0.458   11035   0.351   14150   0.460   11056   0.352     49866     237   49629    3959    6773    3391    5521   29984      36      69       8      11       5       9      37    1515     341     154      85     192     742   47971    3597    6588    3292    5309   29184     201      74      13      20       9      12      21       0      26       3       7       3       4       8     201      49       9      13       5       8      14       0    1556     971
 2004 265   348   14109   0.458   11035   0.351   14152   0.460   11056   0.352     49867     236   49631    3960    6774    3392    5522   29984      35      70       8      11       5       9      37    1515     341     154      85     192     742   47970    3597    6588    3292    5309   29183     200      77      13      21       9      12      22       0      27       3       7       4       4       8     200      50       9      13       5       8      14       0    1556     973
 2004 266   349   14109   0.458   11035   0.351   14153   0.460   11057   0.352     49868     235   49633    3961    6775    3392    5522   29984      35      70       8      11       5       9      37    1514     342     154      85     192     741   47969    3597    6588    3292    5309   29183     200      80      13      21       9      12      23       0      28       4       8       4       4       9     200      51      10      14       6       8      14       0    1557     976
 2004 267   350   14109   0.458   11035   0.351   14154   0.460   11057   0.352     49869     233   49635    3961    6775    3392    5522   29985      35      70       8      11       5       9      37    1514     342     154      85     192     741   47969    3597    6588    3292    5309   29182     199      82      14      22      10      13      24       0      30       4       8       4       5       9     199      52      10      14       6       8      15       0    1558     979
 2004 268   351   14109   0.458   11034   0.351   14153   0.460   11057   0.352     49865     232   49633    3961    6775    3392    5522   29984      34      71       9      11       5       9      37    1514     342     154      85     192     741   47968    3597    6588    3292    5309   29182     198      80      13      21       9      12      23       0      28       4       7       4       4       9     198      52      10      14       6       8      15       0    1559     982
 2004 269   352   14108   0.458   11034   0.351   14151   0.460   11056   0.352     49862     231   49631    3961    6774    3392    5521   29983      34      71       9      11       5       9      37    1514     342     154      85     192     741   47967    3597    6588    3292    5308   29182     197      78      13      21       9      12      23       0      26       3       7       3       4       8     197      52      10      14       6       8      15       0    1559     984
 2004 270   353   14108   0.458   11034   0.351   14151   0.460   11055   0.352     49859     230   49629    3961    6774    3391    5521   29982      34      72       9      11       5       9      37    1514     342     154      85     192     741   47967    3597    6588    3292    5308   29181     196      77      13      21       9      12      22       0      25       3       7       3       4       8     196      51      10      14       6       8      15       0    1560     987
 2004 271   354   14108   0.458   11034   0.351   14149   0.460   11055   0.352     49856     229   49627    3961    6773    3391    5521   29981      34      72       9      11       5       9      38    1514     343     154      85     192     740   47966    3597    6588    3292    5308   29181     196      75      13      20       9      12      22       0      24       3       6       3       4       8     196      51      10      14       6       8      14       0    1561     989
 2004 272   355   14108   0.458   11034   0.351   14148   0.460   11054   0.352     49853     228   49625    3961    6773    3391    5521   29980      33      72       9      11       5       9      38    1514     343     154      85     192     740   47965    3597    6588    3292    5308   29180     195      73      12      20       9      11      22       0      23       3       6       3       4       7     195      51       9      14       6       8      14       0    1561     992
 2004 273   356   14108   0.458   11034   0.351   14147   0.460   11054   0.352     49850     227   49623    3961    6772    3391    5520   29979      33      72       9      11       5       9      38    1514     343     154      85     192     740   47965    3597    6588    3292    5308   29180     194      72      12      19       8      11      21       0      22       3       6       3       3       7     194      51       9      14       6       8      14       0    1562     993
 2004 274   357   14108   0.458   11034   0.351   14146   0.460   11054   0.352     49847     226   49621    3961    6772    3391    5520   29978      33      72       9      11       5       9      38    1514     343     154      85     192     740   47964    3597    6588    3292    5308   29180     193      71      12      19       8      11      21       0      20       2       5       3       3       7     193      50       9      13       5       8      14       0    1563     996
 2004 275   358   14107   0.458   11033   0.351   14145   0.460   11053   0.352     49844     225   49619    3961    6771    3390    5520   29977      32      72       9      11       5       9      38    1514     343     154      85     192     740   47964    3597    6587    3292    5308   29179     192      69      12      18       8      11      20       0      20       2       5       3       3       6     192      50       9      13       5       8      14       0    1564     998
 2004 276   359   14107   0.458   11033   0.351   14145   0.460   11053   0.352     49842     223   49618    3961    6771    3390    5520   29976      32      73       9      11       5       9      38    1514     344     154      85     191     739   47963    3597    6587    3292    5308   29179     191      69      11      18       8      11      20       0      19       2       5       2       3       6     191      50       9      13       5       8      14       0    1565    1000
 2004 277   360   14107   0.458   11033   0.351   14144   0.459   11053   0.352     49840     223   49617    3961    6771    3390    5520   29976      32      73       9      11       5       9      38    1514     344     154      85     191     739   47963    3597    6587    3292    5308   29179     191      68      11      18       8      11      20       0      18       2       5       2       3       6     191      50       9      13       5       8      14       0    1565    1001
 2004 278   361   14107   0.458   11033   0.351   14144   0.459   11052   0.352     49838     222   49616    3961    6771    3390    5519   29975      32      73       9      11       5       9      38    1514     344     154      85     191     739   47962    3597    6587    3292    5308   29178     191      67      11      18       8      11      20       0      18       2       5       2       3       6     191      49       9      13       5       8      14       0    1565    1002
 2004 279   362   14107   0.458   11033   0.351   14143   0.459   11052   0.352     49836     222   49615    3961    6771    3390    5519   29974      31      73       9      11       5       9      38    1513     344     154      85     191     739   47962    3597    6587    3292    5308   29178     190      67      11      18       8      11      19       0      17       2       5       2       3       6     190      49       9      13       5       8      14       0    1566    1003
 2004 280   363   14106   0.458   11033   0.351   14143   0.459   11052   0.352     49835     221   49614    3961    6770    3390    5519   29974      31      73       9      11       5       9      38    1513     344     154      85     191     739   47962    3597    6587    3292    5308   29178     190      66      11      18       8      11      19       0      17       2       5       2       3       5     190      49       9      13       5       8      14       0    1566    1005
 2004 281   364   14106   0.458   11033   0.351   14143   0.459   11052   0.352     49834     221   49613    3961    6770    3390    5519   29973      31      73       9      11       5       9      38    1513     344     154      85     191     739   47961    3597    6587    3292    5308   29177     189      66      11      18       8      10      19       0      17       2       5       2       3       5     189      49       9      13       5       8      14       0    1567    1006
 2004 282   365   14106   0.458   11033   0.351   14142   0.459   11051   0.352     49832     220   49612    3961    6770    3390    5519   29973      31      73       9      11       5       9      38    1513     344     154      85     191     739   47961    3597    6587    3292    5308   29177     189      65      11      18       8      10      19       0      16       2       4       2       3       5     189      49       9      13       5       8      14       0    1567    1007
 2004 283   366   14106   0.458   11033   0.351   14142   0.459   11051   0.352     49831     220   49611    3961    6770    3390    5519   29972      31      73       9      11       5       9      38    1513     344     154      85     191     738   47960    3597    6587    3292    5308   29177     189      65      11      18       8      10      19       0      16       2       4       2       3       5     189      49       9      13       5       8      14       0    1567    1007
 2004 284   367   14106   0.458   11033   0.351   14142   0.459   11051   0.352     49830     219   49611    3961    6770    3390    5519   29971      31      73       9      11       5       9      38    1513     344     154      85     191     738   47960    3597    6587    3292    5308   29177     189      65      11      18       8      10      19       0      16       2       4       2       3       5     189      49       9      13       5       8      14       0    1567    1008
 2004 285   368   14106   0.458   11033   0.351   14142   0.459   11051   0.352     49829     219   49610    3961    6770    3390    5519   29971      31      73       9      11       5       9      38    1513     344     154      85     191     738   47960    3597    6587    3292    5308   29176     189      64      11      18       8      10      18       0      16       2       4       2       3       5     189      49       9      13       5       8      14       0    1567    1009
 2004 286   369   14106   0.458   11032   0.351   14142   0.459   11051   0.352     49827     218   49609    3960    6770    3390    5519   29970      31      73       9      11       5       9      38    1513     344     154      85     191     738   47959    3597    6587    3292    5308   29176     188      64      11      17       8      10      18       0      15       2       4       2       3       5     188      49       9      13       5       8      14       0    1568    1010
 2004 287   370   14106   0.458   11032   0.351   14141   0.459   11050   0.352     49826     218   49608    3960    6770    3390    5518   29970      30      73       9      11       5       9      38    1513     345     154      85     191     738   47959    3597    6587    3292    5308   29176     187      64      10      17       8      10      18       0      15       2       4       2       3       5     187      48       9      13       5       8      14       0    1569    1011
 2004 288   371   14106   0.458   11032   0.351   14141   0.459   11050   0.352     49825     217   49608    3960    6770    3390    5518   29969      30      73       9      11       5       9      38    1513     345     154      85     191     738   47959    3596    6587    3292    5308   29175     187      63      10      17       8      10      18       0      15       2       4       2       3       5     187      48       9      13       5       8      14       0    1569    1012
 2004 289   372   14106   0.458   11032   0.351   14141   0.459   11050   0.352     49824     217   49607    3960    6770    3390    5518   29969      30      73       9      11       5       9      38    1513     345     154      85     191     738   47958    3596    6587    3292    5308   29175     186      63      10      17       8      10      18       0      15       1       4       2       2       4     186      48       9      13       5       8      14       0    1569    1013
 2004 290   373   14106   0.458   11032   0.351   14140   0.459   11050   0.352     49823     216   49606    3960    6770    3390    5518   29968      30      73       9      11       5       9      38    1513     345     154      85     191     738   47958    3596    6587    3292    5308   29175     186      63      10      17       8      10      18       0      15       1       4       2       2       4     186      48       9      13       5       8      13       0    1569    1014
 2004 291   374   14105   0.458   11032   0.351   14140   0.459   11050   0.352     49822     216   49606    3960    6770    3390    5518   29968      30      73       9      11       5       9      38    1513     345     154      85     191     737   47958    3596    6587    3292    5308   29175     186      63      10      17       8      10      18       0      14       1       4       2       2       4     186      48       9      13       5       8      13       0    1570    1014
 2004 292   375   14105   0.458   11032   0.351   14140   0.459   11050   0.352     49821     216   49605    3960    6769    3390    5518   29967      30      73       9      11       5       9      38    1513     345     154      85     191     737   47958    3596    6587    3292    5308   29174     186      62      10      17       8      10      18       0      14       1       4       2       2       4     186      48       9      13       5       8      13       0    1570    1015
 2004 293   376   14105   0.458   11032   0.351   14140   0.459   11050   0.352     49820     215   49605    3960    6769    3390    5518   29967      30      73       9      11       5       9      38    1512     345     154      85     191     737   47957    3596    6587    3292    5308   29174     186      62      10      17       7      10      18       0      14       1       4       2       2       4     186      48       9      13       5       8      13       0    1570    1015
 2004 294   377   14105   0.458   11032   0.351   14140   0.459   11050   0.352     49820     215   49604    3960    6769    3390    5518   29966      30      73       9      11       5       9      38    1512     345     154      85     191     737   47957    3596    6587    3292    5308   29174     186      62      10      17       7      10      18       0      14       1       4       2       2       4     186      48       9      13       5       8      13       0    1570    1016
