*SOIL-PLANT-ATMOSPHERE MODULE OUTPUT FILE

*DSSAT Cropping System Model Ver. 4.5.1.023 -Stub         OCT 13, 2014; 10:45:28
                                                                                
*RUN   1        : DRYLAND  - 0 KG N/HA      CSCER045 KSAS8101    1              
 MODEL          : CSCER045 - Wheat                                              
 EXPERIMENT     : KSAS8101 WH                                                   
 DATA PATH      :                                                               
 TREATMENT  1   : DRYLAND  - 0 KG N/HA      CSCER045                            
  
!                                                                                                                                                Soil evaporation (mm/d) by soil depth (cm):
!                                                                                                                                                0-5    5-15   15-30   30-45   45-60   60-90  90-120 120-150 150-180
@YEAR DOY   DAS   SRAA  TMAXA  TMINA   EOAA   EOPA   EOSA   ETAA   EPAA   ESAA   EFAA   EMAA    EOAC    ETAC    EPAC    ESAC    EFAC    EMAC    ES1D    ES2D    ES3D    ES4D    ES5D    ES6D    ES7D    ES8D    ES9D
 1981 279     1  16.50  18.90   9.40  3.614  0.000  3.614  0.954  0.000  0.954  0.000  0.000    3.61    0.95    0.00    0.95    0.00    0.00   0.817   0.103   0.025   0.004   0.002   0.001   0.001   0.000   0.000
 1981 280     2  12.30  17.80   6.10  2.560  0.000  2.560  0.881  0.000  0.881  0.000  0.000    6.17    1.83    0.00    1.83    0.00    0.00   0.744   0.102   0.025   0.004   0.002   0.001   0.001   0.000   0.000
 1981 281     3  13.70  18.90   2.80  2.793  0.000  2.793  0.814  0.000  0.814  0.000  0.000    8.97    2.65    0.00    2.65    0.00    0.00   0.678   0.102   0.025   0.004   0.002   0.001   0.001   0.000   0.000
 1981 282     4   3.20  15.60  12.80  0.681  0.000  0.681  0.681  0.000  0.681  0.000  0.000    9.65    3.33    0.00    3.33    0.00    0.00   0.559   0.091   0.023   0.004   0.002   0.001   0.001   0.000   0.000
 1981 283     5  11.60  18.30   7.20  2.426  0.000  2.426  0.703  0.000  0.703  0.000  0.000   12.07    4.03    0.00    4.03    0.00    0.00   0.568   0.101   0.025   0.004   0.002   0.001   0.001   0.000   0.000
 1981 284     6   4.40  18.30   7.80  0.922  0.000  0.922  0.652  0.000  0.652  0.000  0.000   13.00    4.68    0.00    4.68    0.00    0.00   0.517   0.100   0.025   0.004   0.002   0.001   0.001   0.000   0.000
 1981 285     7   1.70  18.30  13.90  0.375  0.000  0.375  0.375  0.000  0.375  0.000  0.000   13.37    5.06    0.00    5.06    0.00    0.00   0.315   0.045   0.011   0.002   0.001   0.001   0.000   0.000   0.000
 1981 286     8   1.80  20.60  17.80  0.437  0.000  0.437  0.437  0.000  0.437  0.000  0.000   13.81    5.50    0.00    5.50    0.00    0.00   0.150   0.102   0.069   0.026   0.021   0.022   0.018   0.015   0.013
 1981 287     9   6.80  20.60  13.30  1.586  0.000  1.586  1.586  0.000  1.586  0.000  0.000   15.39    7.08    0.00    7.08    0.00    0.00   0.551   0.376   0.247   0.093   0.074   0.080   0.064   0.054   0.047
 1981 288    10   6.40  17.20   9.40  1.380  0.000  1.380  1.380  0.000  1.380  0.000  0.000   16.77    8.46    0.00    8.46    0.00    0.00   0.471   0.334   0.215   0.082   0.065   0.070   0.056   0.047   0.041
 1981 289    11   3.40  16.70   8.90  0.722  0.000  0.722  0.722  0.000  0.722  0.000  0.000   17.50    9.18    0.00    9.18    0.00    0.00   0.622   0.076   0.017   0.003   0.002   0.001   0.001   0.000   0.000
 1981 290    12  12.50  20.00  12.20  2.849  0.000  2.849  2.849  0.000  2.849  0.000  0.000   20.35   12.03    0.00   12.03    0.00    0.00   0.933   0.711   0.490   0.161   0.128   0.138   0.112   0.094   0.082
 1981 291    13  12.20  12.80   6.10  2.388  0.000  2.388  2.388  0.000  2.388  0.000  0.000   22.73   14.42    0.00   14.42    0.00    0.00   0.765   0.589   0.455   0.130   0.104   0.112   0.091   0.076   0.066
 1981 292    14  15.70  24.40   0.00  3.410  0.000  3.410  1.000  0.000  1.000  0.000  0.000   26.14   15.42    0.00   15.42    0.00    0.00   0.845   0.114   0.032   0.004   0.002   0.001   0.001   0.000   0.000
 1981 293    15  15.10  23.30  11.70  3.562  0.000  3.562  0.924  0.000  0.924  0.000  0.000   29.71   16.35    0.00   16.35    0.00    0.00   0.770   0.113   0.032   0.004   0.002   0.001   0.001   0.000   0.000
 1981 294    16  11.00  16.70   6.70  2.260  0.000  2.260  0.855  0.000  0.855  0.000  0.000   31.97   17.20    0.00   17.20    0.00    0.00   0.701   0.112   0.032   0.004   0.002   0.001   0.001   0.000   0.000
 1981 295    17  13.90  10.60   1.70  2.457  0.000  2.457  0.792  0.000  0.792  0.000  0.000   34.42   17.99    0.00   17.99    0.00    0.00   0.639   0.112   0.032   0.004   0.002   0.001   0.001   0.000   0.000
 1981 296    18  15.10   7.20  -3.30  2.360  0.003  2.357  0.737  0.003  0.734  0.000  0.000   36.78   18.73    0.00   18.73    0.00    0.00   0.582   0.111   0.032   0.004   0.002   0.001   0.001   0.000   0.000
 1981 297    19   4.90  11.10   1.10  0.861  0.001  0.860  0.683  0.001  0.682  0.000  0.000   37.64   19.41    0.00   19.41    0.00    0.00   0.530   0.110   0.032   0.004   0.002   0.001   0.001   0.000   0.000
 1981 298    20   5.80  11.10   5.60  1.066  0.002  1.063  0.770  0.002  0.767  0.000  0.000   38.71   20.18    0.01   20.18    0.00    0.00   0.616   0.110   0.032   0.004   0.002   0.001   0.001   0.000   0.000
 1981 299    21  13.00  15.60   0.00  2.454  0.011  2.443  0.891  0.011  0.881  0.000  0.000   41.16   21.07    0.02   21.06    0.00    0.00   0.731   0.109   0.032   0.004   0.002   0.001   0.001   0.000   0.000
 1981 300    22  13.10  21.70   5.60  2.854  0.017  2.836  0.868  0.017  0.850  0.000  0.000   44.02   21.94    0.03   21.91    0.00    0.00   0.701   0.109   0.032   0.004   0.002   0.001   0.001   0.000   0.000
 1981 301    23  12.10  21.70  10.60  2.741  0.027  2.714  0.814  0.027  0.787  0.000  0.000   46.76   22.76    0.06   22.69    0.00    0.00   0.638   0.108   0.032   0.004   0.002   0.001   0.001   0.000   0.000
 1981 302    24  12.30  25.00  10.00  2.877  0.042  2.835  0.770  0.042  0.728  0.000  0.000   49.63   23.53    0.10   23.42    0.00    0.00   0.580   0.107   0.032   0.004   0.002   0.001   0.001   0.000   0.000
 1981 303    25   2.90  18.30  13.90  0.641  0.013  0.628  0.641  0.013  0.628  0.000  0.000   50.27   24.17    0.12   24.05    0.00    0.00   0.491   0.099   0.030   0.004   0.002   0.001   0.001   0.000   0.000
 1981 304    26   1.80  15.60  12.20  0.376  0.009  0.367  0.376  0.009  0.367  0.000  0.000   50.65   24.54    0.13   24.42    0.00    0.00   0.284   0.060   0.018   0.002   0.001   0.001   0.000   0.000   0.000
 1981 305    27   2.90  15.00   9.40  0.586  0.017  0.568  0.586  0.017  0.568  0.000  0.000   51.24   25.13    0.14   24.99    0.00    0.00   0.145   0.133   0.117   0.045   0.036   0.035   0.024   0.017   0.015
 1981 306    28   2.80  13.30   7.20  0.558  0.019  0.539  0.558  0.019  0.539  0.000  0.000   51.79   25.69    0.16   25.52    0.00    0.00   0.153   0.114   0.103   0.048   0.038   0.034   0.023   0.014   0.012
 1981 307    29   6.20  15.60   7.20  1.278  0.047  1.231  1.278  0.047  1.231  0.000  0.000   53.07   26.96    0.21   26.76    0.00    0.00   0.341   0.256   0.234   0.110   0.088   0.078   0.057   0.038   0.028
 1981 308    30   3.60  12.20   8.30  0.710  0.029  0.681  0.709  0.029  0.681  0.000  0.000   53.78   27.67    0.24   27.44    0.00    0.00   0.187   0.141   0.129   0.060   0.048   0.044   0.032   0.024   0.016
 1981 309    31  12.20  15.60   5.60  2.472  0.108  2.364  2.472  0.108  2.364  0.000  0.000   56.25   30.15    0.35   29.80    0.00    0.00   0.655   0.489   0.440   0.207   0.163   0.148   0.112   0.089   0.061
 1981 310    32  12.80  15.60  -2.20  2.386  0.112  2.274  2.386  0.112  2.274  0.000  0.000   58.64   32.53    0.46   32.07    0.00    0.00   0.616   0.470   0.429   0.198   0.156   0.141   0.106   0.088   0.070
 1981 311    33   9.20  19.40   0.00  1.849  0.089  1.760  1.849  0.089  1.760  0.000  0.000   60.49   34.38    0.55   33.83    0.00    0.00   0.461   0.366   0.338   0.154   0.122   0.109   0.082   0.070   0.059
 1981 312    34   1.10  16.70   5.00  0.222  0.011  0.211  0.222  0.011  0.211  0.000  0.000   60.71   34.60    0.56   34.04    0.00    0.00   0.056   0.044   0.040   0.019   0.015   0.013   0.010   0.008   0.007
 1981 313    35  12.60   7.80  -2.80  2.046  0.108  1.938  2.046  0.108  1.938  0.000  0.000   62.76   36.65    0.67   35.98    0.00    0.00   0.532   0.399   0.363   0.168   0.133   0.121   0.088   0.072   0.061
 1981 314    36  11.90  15.00  -3.90  2.156  0.114  2.042  2.156  0.114  2.042  0.000  0.000   64.91   38.80    0.78   38.02    0.00    0.00   0.551   0.421   0.386   0.177   0.140   0.127   0.095   0.078   0.067
 1981 315    37  11.40  16.10  -1.10  2.154  0.116  2.038  2.154  0.116  2.038  0.000  0.000   67.07   40.96    0.90   40.06    0.00    0.00   0.537   0.424   0.389   0.177   0.140   0.126   0.095   0.081   0.069
 1981 316    38  11.10  20.00   1.70  2.279  0.126  2.153  2.279  0.126  2.153  0.000  0.000   69.35   43.24    1.02   42.21    0.00    0.00   0.548   0.448   0.415   0.190   0.151   0.136   0.102   0.087   0.075
 1981 317    39  10.90  19.40   1.70  2.210  0.130  2.080  2.210  0.130  2.080  0.000  0.000   71.56   45.45    1.15   44.30    0.00    0.00   0.510   0.434   0.406   0.187   0.148   0.134   0.101   0.086   0.074
 1981 318    40   7.90  18.30   7.80  1.665  0.103  1.562  1.665  0.103  1.562  0.000  0.000   73.22   47.11    1.25   45.86    0.00    0.00   0.369   0.326   0.309   0.143   0.114   0.103   0.077   0.066   0.057
 1981 319    41   8.50  20.00  10.00  1.865  0.122  1.743  1.865  0.122  1.743  0.000  0.000   75.09   48.98    1.38   47.60    0.00    0.00   0.399   0.363   0.347   0.161   0.128   0.117   0.088   0.075   0.064
 1981 320    42  10.90  20.00  15.00  2.490  0.175  2.315  0.982  0.175  0.807  0.000  0.000   77.58   49.96    1.55   48.41    0.00    0.00   0.654   0.102   0.035   0.008   0.004   0.002   0.001   0.001   0.000
 1981 321    43  10.40  23.30   2.20  2.206  0.167  2.038  0.912  0.167  0.745  0.000  0.000   79.78   50.87    1.72   49.15    0.00    0.00   0.593   0.101   0.035   0.008   0.004   0.002   0.001   0.001   0.000
 1981 322    44   6.80  18.90   9.40  1.444  0.116  1.328  0.804  0.116  0.688  0.000  0.000   81.23   51.67    1.83   49.84    0.00    0.00   0.537   0.100   0.035   0.008   0.004   0.002   0.001   0.001   0.000
 1981 323    45   2.30   9.40  -1.10  0.377  0.032  0.345  0.377  0.032  0.345  0.000  0.000   81.60   52.05    1.87   50.18    0.00    0.00   0.264   0.054   0.019   0.004   0.002   0.001   0.001   0.000   0.000
 1981 324    46  10.00   3.90  -3.90  0.957  0.082  0.876  0.694  0.082  0.613  0.000  0.000   82.56   52.75    1.95   50.80    0.00    0.00   0.464   0.099   0.035   0.008   0.004   0.002   0.001   0.001   0.000
 1981 325    47  10.10  10.60  -5.60  1.597  0.136  1.461  0.705  0.136  0.569  0.000  0.000   84.16   53.45    2.08   51.37    0.00    0.00   0.421   0.098   0.035   0.008   0.004   0.002   0.001   0.001   0.000
 1981 326    48   7.00  17.20  -3.30  1.267  0.108  1.159  0.638  0.108  0.530  0.000  0.000   85.43   54.09    2.19   51.90    0.00    0.00   0.382   0.097   0.035   0.008   0.004   0.002   0.001   0.001   0.000
 1981 327    49   9.10  15.00   6.10  1.748  0.152  1.596  0.647  0.152  0.494  0.000  0.000   87.17   54.74    2.34   52.39    0.00    0.00   0.348   0.096   0.034   0.008   0.004   0.002   0.001   0.001   0.000
 1981 328    50   8.00  12.80   0.00  1.391  0.126  1.265  0.588  0.126  0.462  0.000  0.000   88.57   55.32    2.47   52.85    0.00    0.00   0.317   0.095   0.034   0.008   0.004   0.002   0.001   0.001   0.000
 1981 329    51   8.50  19.40   5.00  1.714  0.157  1.557  0.590  0.157  0.433  0.000  0.000   90.28   55.91    2.63   53.29    0.00    0.00   0.288   0.095   0.034   0.008   0.004   0.002   0.001   0.001   0.000
 1981 330    52   6.20  10.00   3.30  1.063  0.102  0.961  0.508  0.102  0.406  0.000  0.000   91.34   56.42    2.73   53.69    0.00    0.00   0.263   0.094   0.034   0.008   0.004   0.002   0.001   0.001   0.000
 1981 331    53   5.70   5.00  -6.70  0.787  0.077  0.711  0.458  0.076  0.382  0.000  0.000   92.13   56.88    2.81   54.07    0.00    0.00   0.239   0.093   0.034   0.008   0.004   0.002   0.001   0.001   0.000
 1981 332    54   5.40   6.10  -1.10  0.819  0.080  0.739  0.439  0.080  0.359  0.000  0.000   92.95   57.32    2.89   54.43    0.00    0.00   0.218   0.092   0.034   0.008   0.004   0.002   0.001   0.001   0.000
 1981 333    55   4.60   9.40  -3.30  0.720  0.070  0.650  0.409  0.070  0.339  0.000  0.000   93.67   57.73    2.96   54.77    0.00    0.00   0.199   0.091   0.034   0.008   0.004   0.002   0.001   0.001   0.000
 1981 334    56   0.70   7.80   3.90  0.116  0.011  0.105  0.116  0.011  0.105  0.000  0.000   93.78   57.84    2.97   54.88    0.00    0.00   0.082   0.015   0.005   0.001   0.001   0.000   0.000   0.000   0.000
 1981 335    57   2.80   4.40   0.00  0.322  0.031  0.291  0.322  0.031  0.291  0.000  0.000   94.11   58.17    3.00   55.17    0.00    0.00   0.082   0.062   0.054   0.024   0.019   0.017   0.013   0.011   0.009
 1981 336    58   8.00   8.90  -1.70  1.333  0.129  1.203  1.332  0.129  1.203  0.000  0.000   95.44   59.50    3.13   56.37    0.00    0.00   0.330   0.249   0.227   0.104   0.082   0.072   0.054   0.046   0.039
 1981 337    59   9.80  10.60  -1.70  1.673  0.162  1.511  1.672  0.162  1.511  0.000  0.000   97.11   61.17    3.29   57.88    0.00    0.00   0.410   0.311   0.286   0.130   0.103   0.093   0.069   0.059   0.051
 1981 338    60   9.90   8.90  -1.10  1.648  0.159  1.488  1.647  0.159  1.488  0.000  0.000   98.76   62.82    3.45   59.37    0.00    0.00   0.394   0.307   0.284   0.130   0.103   0.093   0.069   0.059   0.051
 1981 339    61   3.50  10.60  -2.80  0.587  0.057  0.530  0.587  0.057  0.530  0.000  0.000   99.35   63.40    3.50   59.90    0.00    0.00   0.137   0.109   0.102   0.047   0.037   0.033   0.025   0.021   0.018
 1981 340    62   6.90  16.10   1.70  1.328  0.128  1.200  1.328  0.128  1.200  0.000  0.000  100.67   64.73    3.63   61.10    0.00    0.00   0.307   0.247   0.231   0.106   0.084   0.076   0.057   0.048   0.042
 1981 341    63   9.00  17.80   5.60  1.842  0.180  1.662  1.841  0.180  1.662  0.000  0.000  102.52   66.57    3.81   62.76    0.00    0.00   0.416   0.343   0.323   0.149   0.118   0.107   0.080   0.068   0.059
 1981 342    64   7.90  10.60  -3.30  1.309  0.130  1.179  1.308  0.130  1.178  0.000  0.000  103.83   67.88    3.94   63.94    0.00    0.00   0.286   0.243   0.231   0.107   0.085   0.077   0.058   0.049   0.042
 1981 343    65   8.60   6.70  -2.20  1.343  0.134  1.209  1.342  0.134  1.209  0.000  0.000  105.17   69.22    4.08   65.15    0.00    0.00   0.287   0.249   0.238   0.111   0.088   0.080   0.060   0.051   0.044
 1981 344    66   2.30   2.20  -2.80  0.161  0.016  0.145  0.161  0.016  0.145  0.000  0.000  105.33   69.38    4.09   65.29    0.00    0.00   0.034   0.030   0.029   0.013   0.011   0.010   0.007   0.006   0.005
 1981 345    67   1.80   3.90   1.10  0.186  0.018  0.168  0.186  0.018  0.168  0.000  0.000  105.52   69.57    4.11   65.46    0.00    0.00   0.039   0.035   0.033   0.016   0.012   0.011   0.008   0.007   0.006
 1981 346    68   1.60   3.90   1.70  0.167  0.017  0.150  0.167  0.017  0.150  0.000  0.000  105.68   69.74    4.13   65.61    0.00    0.00   0.035   0.031   0.030   0.014   0.011   0.010   0.008   0.006   0.006
 1981 347    69   1.30   4.40   0.60  0.148  0.015  0.133  0.147  0.015  0.133  0.000  0.000  105.83   69.88    4.14   65.74    0.00    0.00   0.031   0.027   0.026   0.012   0.010   0.009   0.007   0.006   0.005
 1981 348    70   8.40   2.80  -1.70  0.673  0.066  0.606  0.672  0.066  0.606  0.000  0.000  106.50   70.56    4.21   66.35    0.00    0.00   0.498   0.072   0.025   0.005   0.003   0.001   0.001   0.000   0.000
 1981 349    71   4.20   2.20  -2.20  0.296  0.029  0.267  0.296  0.029  0.267  0.000  0.000  106.80   70.85    4.24   66.62    0.00    0.00   0.218   0.032   0.011   0.002   0.001   0.001   0.000   0.000   0.000
 1981 350    72   0.70  -1.10  -8.30  0.023  0.002  0.021  0.023  0.002  0.021  0.000  0.000  106.82   70.87    4.24   66.64    0.00    0.00   0.017   0.003   0.001   0.000   0.000   0.000   0.000   0.000   0.000
 1981 351    73   8.20  -8.30 -16.70  0.051  0.005  0.046  0.051  0.005  0.046  0.000  0.000  106.87   70.93    4.24   66.68    0.00    0.00   0.038   0.006   0.002   0.000   0.000   0.000   0.000   0.000   0.000
 1981 352    74   6.70  -9.40 -17.80  0.032  0.002  0.031  0.032  0.002  0.031  0.000  0.000  106.91   70.96    4.25   66.71    0.00    0.00   0.025   0.004   0.001   0.000   0.000   0.000   0.000   0.000   0.000
 1981 353    75   9.30  -5.00 -17.80  0.116  0.002  0.114  0.115  0.002  0.113  0.000  0.000  107.02   71.07    4.25   66.83    0.00    0.00   0.092   0.014   0.005   0.001   0.001   0.000   0.000   0.000   0.000
 1981 354    76   3.10   2.80 -11.10  0.218  0.002  0.216  0.215  0.002  0.213  0.000  0.000  107.24   71.29    4.25   67.04    0.00    0.00   0.178   0.023   0.008   0.002   0.001   0.000   0.000   0.000   0.000
 1981 355    77   1.60   2.80   1.10  0.135  0.001  0.134  0.134  0.001  0.132  0.000  0.000  107.38   71.42    4.25   67.17    0.00    0.00   0.038   0.025   0.024   0.011   0.009   0.008   0.006   0.005   0.005
 1981 356    78   1.90   2.80   0.60  0.161  0.002  0.159  0.159  0.002  0.157  0.000  0.001  107.54   71.58    4.25   67.33    0.00    0.00   0.045   0.031   0.028   0.013   0.011   0.010   0.007   0.006   0.005
 1981 357    79   9.20   5.00  -7.20  1.328  0.014  1.314  1.310  0.014  1.296  0.000  0.000  108.86   72.89    4.27   68.62    0.00    0.00   0.365   0.262   0.235   0.110   0.088   0.080   0.060   0.051   0.044
 1981 358    80   9.50   7.20  -7.80  1.417  0.015  1.402  1.057  0.015  1.041  0.000  0.000  110.28   73.95    4.28   69.66    0.00    0.00   0.883   0.108   0.035   0.008   0.004   0.002   0.001   0.001   0.000
 1981 359    81   6.70   7.20  -3.90  1.046  0.011  1.034  0.973  0.011  0.962  0.000  0.000  111.33   74.92    4.29   70.63    0.00    0.00   0.804   0.108   0.035   0.008   0.004   0.002   0.001   0.001   0.000
 1981 360    82   7.10   3.30  -6.70  0.592  0.006  0.586  0.584  0.006  0.577  0.000  0.000  111.92   75.51    4.30   71.20    0.00    0.00   0.475   0.069   0.022   0.005   0.003   0.001   0.001   0.000   0.000
 1981 361    83   2.10   2.20  -8.30  0.137  0.001  0.135  0.135  0.001  0.133  0.000  0.000  112.06   75.64    4.30   71.34    0.00    0.00   0.108   0.017   0.005   0.001   0.001   0.000   0.000   0.000   0.000
 1981 362    84   6.80   0.00  -8.90  0.280  0.003  0.277  0.277  0.003  0.273  0.000  0.000  112.34   75.92    4.30   71.61    0.00    0.00   0.222   0.035   0.011   0.002   0.001   0.001   0.000   0.000   0.000
 1981 363    85   9.80   4.40 -11.70  0.944  0.010  0.934  0.840  0.010  0.830  0.000  0.000  113.28   76.76    4.31   72.44    0.00    0.00   0.673   0.106   0.034   0.008   0.004   0.002   0.001   0.001   0.000
 1981 364    86   6.70  10.60  -7.20  1.056  0.011  1.045  0.794  0.011  0.782  0.000  0.001  114.34   77.55    4.32   73.22    0.00    0.00   0.627   0.106   0.034   0.008   0.004   0.002   0.001   0.001   0.000
 1981 365    87   7.20   6.70  -6.70  1.056  0.012  1.045  0.737  0.012  0.725  0.000  0.001  115.39   78.29    4.34   73.95    0.00    0.01   0.571   0.105   0.034   0.008   0.004   0.002   0.001   0.001   0.000
 1982 001    88   2.30  -2.20 -10.00  0.059  0.001  0.058  0.058  0.001  0.057  0.000  0.000  115.45   78.35    4.34   74.00    0.00    0.01   0.044   0.009   0.003   0.001   0.000   0.000   0.000   0.000   0.000
 1982 002    89   1.00   6.10  -4.40  0.149  0.002  0.147  0.147  0.002  0.145  0.000  0.000  115.60   78.49    4.34   74.15    0.00    0.01   0.115   0.020   0.007   0.001   0.001   0.000   0.000   0.000   0.000
 1982 003    90   1.70  -3.30  -9.40  0.035  0.000  0.035  0.035  0.000  0.034  0.000  0.000  115.64   78.53    4.34   74.18    0.00    0.01   0.028   0.004   0.001   0.000   0.000   0.000   0.000   0.000   0.000
 1982 004    91  10.10   2.80 -15.00  0.669  0.007  0.661  0.660  0.007  0.652  0.000  0.001  116.30   79.19    4.35   74.83    0.00    0.01   0.549   0.071   0.022   0.005   0.003   0.001   0.001   0.000   0.000
 1982 005    92   9.60   6.10  -9.40  1.378  0.015  1.363  1.359  0.015  1.344  0.000  0.001  117.68   80.55    4.36   76.18    0.00    0.01   0.379   0.282   0.239   0.112   0.090   0.082   0.061   0.052   0.045
 1982 006    93   4.00  -6.70 -15.00  0.037  0.000  0.037  0.037  0.000  0.036  0.000  0.000  117.72   80.58    4.36   76.21    0.00    0.01   0.030   0.004   0.001   0.000   0.000   0.000   0.000   0.000   0.000
 1982 007    94  10.10  -5.60 -17.20  0.114  0.001  0.113  0.112  0.001  0.111  0.000  0.000  117.83   80.70    4.36   76.32    0.00    0.01   0.094   0.012   0.004   0.001   0.000   0.000   0.000   0.000   0.000
 1982 008    95   7.70   5.00 -10.60  1.056  0.007  1.049  1.042  0.007  1.034  0.000  0.000  118.89   81.74    4.37   77.36    0.00    0.01   0.873   0.112   0.034   0.007   0.004   0.002   0.001   0.001   0.000
 1982 009    96   6.00  -1.70 -15.00  0.159  0.001  0.158  0.156  0.001  0.155  0.000  0.001  119.05   81.90    4.37   77.51    0.00    0.01   0.129   0.018   0.006   0.001   0.001   0.000   0.000   0.000   0.000
 1982 010    97   9.90 -11.10 -26.10  0.026  0.000  0.026  0.026  0.000  0.025  0.000  0.000  119.07   81.92    4.37   77.54    0.00    0.01   0.021   0.003   0.001   0.000   0.000   0.000   0.000   0.000   0.000
 1982 011    98   8.80  -5.60 -21.10  0.090  0.000  0.090  0.089  0.000  0.088  0.000  0.001  119.16   82.01    4.37   77.63    0.00    0.01   0.073   0.010   0.003   0.001   0.000   0.000   0.000   0.000   0.000
 1982 012    99   4.40  -7.20 -11.10  0.040  0.000  0.040  0.039  0.000  0.039  0.000  0.001  119.20   82.05    4.37   77.67    0.00    0.01   0.032   0.005   0.001   0.000   0.000   0.000   0.000   0.000   0.000
 1982 013   100  11.00  -7.80 -21.10  0.070  0.000  0.070  0.069  0.000  0.068  0.000  0.001  119.27   82.12    4.37   77.73    0.00    0.01   0.057   0.008   0.002   0.001   0.000   0.000   0.000   0.000   0.000
 1982 014   101   9.70   8.30 -14.40  1.343  0.001  1.342  1.033  0.001  1.032  0.000  0.001  120.62   83.15    4.37   78.77    0.00    0.01   0.868   0.113   0.034   0.008   0.004   0.002   0.001   0.001   0.000
 1982 015   102   5.90   5.60  -8.30  0.847  0.000  0.846  0.834  0.000  0.833  0.000  0.001  121.46   83.98    4.37   79.60    0.00    0.01   0.227   0.177   0.151   0.070   0.056   0.051   0.038   0.033   0.028
 1982 016   103  11.00  -8.30 -20.00  0.065  0.000  0.065  0.064  0.000  0.063  0.000  0.001  121.53   84.05    4.37   79.66    0.00    0.01   0.053   0.007   0.002   0.000   0.000   0.000   0.000   0.000   0.000
 1982 017   104   8.50  -0.60 -16.70  0.275  0.000  0.275  0.271  0.000  0.270  0.000  0.001  121.80   84.32    4.37   79.93    0.00    0.01   0.227   0.030   0.009   0.002   0.001   0.001   0.000   0.000   0.000
 1982 018   105  10.00   8.90  -8.30  1.528  0.001  1.528  1.002  0.001  1.001  0.000  0.001  123.33   85.32    4.37   80.93    0.00    0.01   0.838   0.113   0.034   0.008   0.004   0.002   0.001   0.001   0.000
 1982 019   106   9.00   7.20  -8.30  1.323  0.001  1.323  0.927  0.001  0.925  0.000  0.001  124.66   86.25    4.37   81.86    0.00    0.02   0.763   0.112   0.034   0.008   0.004   0.002   0.001   0.001   0.000
 1982 020   107   2.10  -1.10  -5.60  0.073  0.000  0.073  0.072  0.000  0.071  0.000  0.001  124.73   86.32    4.37   81.93    0.00    0.02   0.058   0.009   0.003   0.001   0.000   0.000   0.000   0.000   0.000
 1982 021   108   2.10  -2.80  -7.20  0.050  0.000  0.050  0.050  0.000  0.049  0.000  0.001  124.78   86.37    4.37   81.98    0.00    0.02   0.040   0.006   0.002   0.000   0.000   0.000   0.000   0.000   0.000
 1982 022   109   1.70   5.00  -9.40  0.234  0.000  0.234  0.230  0.000  0.230  0.000  0.001  125.01   86.60    4.37   82.21    0.00    0.02   0.190   0.028   0.008   0.002   0.001   0.001   0.000   0.000   0.000
 1982 023   110  11.30  -6.70 -15.00  0.105  0.000  0.105  0.104  0.000  0.103  0.000  0.001  125.12   86.70    4.37   82.31    0.00    0.02   0.086   0.012   0.004   0.001   0.000   0.000   0.000   0.000   0.000
 1982 024   111   7.90  -0.60 -14.40  0.266  0.000  0.266  0.262  0.000  0.261  0.000  0.001  125.38   86.96    4.37   82.57    0.00    0.02   0.218   0.030   0.009   0.002   0.001   0.001   0.000   0.000   0.000
 1982 025   112  11.60   5.60  -7.80  1.667  0.001  1.666  1.641  0.001  1.640  0.000  0.001  127.05   88.61    4.37   84.21    0.00    0.02   0.453   0.349   0.299   0.136   0.109   0.100   0.075   0.064   0.055
 1982 026   113  10.40  11.70  -8.90  1.678  0.001  1.677  1.652  0.001  1.651  0.000  0.001  128.73   90.26    4.38   85.86    0.00    0.02   0.475   0.353   0.303   0.134   0.105   0.095   0.072   0.061   0.053
 1982 027   114  10.10  11.70   4.40  1.896  0.001  1.896  1.867  0.001  1.866  0.000  0.001  130.63   92.13    4.38   87.73    0.00    0.02   0.515   0.392   0.352   0.159   0.123   0.110   0.083   0.070   0.061
 1982 028   115   9.70   6.10  -6.10  1.449  0.001  1.448  1.427  0.001  1.425  0.000  0.001  132.07   93.55    4.38   89.15    0.00    0.02   0.381   0.300   0.271   0.123   0.097   0.086   0.065   0.055   0.047
 1982 029   116   1.00   9.40   1.10  0.173  0.000  0.173  0.170  0.000  0.170  0.000  0.001  132.25   93.72    4.38   89.32    0.00    0.02   0.142   0.019   0.006   0.001   0.001   0.000   0.000   0.000   0.000
 1982 030   117   5.10   3.30  -3.30  0.449  0.000  0.449  0.442  0.000  0.441  0.000  0.001  132.70   94.17    4.38   89.77    0.00    0.02   0.121   0.093   0.083   0.038   0.030   0.026   0.020   0.017   0.014
 1982 031   118   5.10  -2.80 -11.70  0.116  0.000  0.116  0.114  0.000  0.113  0.000  0.001  132.81   94.28    4.38   89.88    0.00    0.02   0.032   0.023   0.021   0.010   0.008   0.007   0.005   0.004   0.004
 1982 032   119   4.90   3.30  -7.20  0.412  0.000  0.411  0.405  0.000  0.404  0.000  0.001  133.22   94.68    4.38   90.28    0.00    0.02   0.111   0.084   0.076   0.035   0.027   0.024   0.018   0.015   0.013
 1982 033   120   3.30   0.00  -7.80  0.141  0.000  0.141  0.138  0.000  0.138  0.000  0.001  133.36   94.82    4.38   90.42    0.00    0.02   0.038   0.029   0.026   0.012   0.009   0.008   0.006   0.005   0.005
 1982 034   121  11.90  -7.80 -18.30  0.082  0.000  0.082  0.081  0.000  0.080  0.000  0.001  133.45   94.90    4.38   90.50    0.00    0.03   0.022   0.017   0.015   0.007   0.005   0.005   0.004   0.003   0.003
 1982 035   122   4.90 -13.90 -20.00  0.008  0.000  0.008  0.008  0.000  0.008  0.000  0.000  133.45   94.91    4.38   90.51    0.00    0.03   0.002   0.002   0.002   0.001   0.001   0.000   0.000   0.000   0.000
 1982 036   123  13.70 -12.80 -18.30  0.032  0.000  0.032  0.031  0.000  0.031  0.000  0.000  133.49   94.94    4.38   90.54    0.00    0.03   0.008   0.006   0.006   0.003   0.002   0.002   0.001   0.001   0.001
 1982 037   124  14.70  -4.40 -23.30  0.187  0.000  0.187  0.184  0.000  0.183  0.000  0.001  133.67   95.13    4.38   90.72    0.00    0.03   0.050   0.038   0.035   0.016   0.013   0.011   0.008   0.007   0.006
 1982 038   125  14.20   2.20 -15.00  0.845  0.000  0.844  0.832  0.000  0.830  0.000  0.001  134.52   95.96    4.38   91.55    0.00    0.03   0.233   0.171   0.155   0.071   0.056   0.050   0.037   0.031   0.027
 1982 039   126   5.10  -6.10 -10.00  0.060  0.000  0.060  0.059  0.000  0.058  0.000  0.001  134.58   96.02    4.38   91.61    0.00    0.03   0.016   0.012   0.011   0.005   0.004   0.004   0.003   0.002   0.002
 1982 040   127  14.50  -9.40 -19.40  0.069  0.000  0.069  0.068  0.000  0.067  0.000  0.001  134.65   96.08    4.38   91.68    0.00    0.03   0.018   0.014   0.013   0.006   0.005   0.004   0.003   0.003   0.002
 1982 041   128  11.60  -4.40 -18.90  0.163  0.000  0.163  0.160  0.000  0.159  0.000  0.001  134.81   96.24    4.38   91.84    0.00    0.03   0.044   0.033   0.030   0.014   0.011   0.010   0.007   0.006   0.005
 1982 042   129  10.50   0.00 -17.80  0.378  0.000  0.378  0.373  0.000  0.372  0.000  0.001  135.19   96.62    4.38   92.21    0.00    0.03   0.101   0.077   0.070   0.032   0.025   0.023   0.017   0.014   0.012
 1982 043   130   7.70   1.70  -6.10  0.475  0.000  0.474  0.467  0.000  0.467  0.000  0.001  135.66   97.08    4.38   92.68    0.00    0.03   0.128   0.097   0.088   0.041   0.032   0.028   0.021   0.017   0.015
 1982 044   131  15.70   3.90 -12.20  1.389  0.001  1.388  1.367  0.001  1.366  0.000  0.001  137.05   98.45    4.38   94.04    0.00    0.03   0.378   0.284   0.256   0.120   0.094   0.081   0.060   0.050   0.043
 1982 045   132  12.30   6.70  -1.10  1.993  0.001  1.992  1.962  0.001  1.960  0.000  0.001  139.04  100.41    4.38   96.00    0.00    0.03   0.538   0.406   0.366   0.172   0.136   0.119   0.088   0.073   0.063
 1982 046   133   4.20   7.20   2.20  0.714  0.000  0.713  0.703  0.000  0.701  0.000  0.001  139.76  101.12    4.38   96.70    0.00    0.03   0.190   0.145   0.132   0.061   0.048   0.043   0.032   0.027   0.023
 1982 047   134   2.30   5.00   2.20  0.374  0.000  0.374  0.369  0.000  0.368  0.000  0.001  140.13  101.49    4.38   97.07    0.00    0.03   0.100   0.076   0.069   0.032   0.025   0.023   0.017   0.014   0.012
 1982 048   135   1.80   3.90   1.10  0.190  0.000  0.190  0.187  0.000  0.186  0.000  0.001  140.32  101.67    4.38   97.26    0.00    0.03   0.051   0.038   0.035   0.016   0.013   0.011   0.009   0.007   0.006
 1982 049   136  10.50  12.80   1.10  1.929  0.001  1.928  1.899  0.001  1.897  0.000  0.001  142.25  103.57    4.38   99.16    0.00    0.03   0.529   0.394   0.354   0.161   0.127   0.114   0.086   0.072   0.062
 1982 050   137  14.70  18.90  -1.10  2.914  0.002  2.911  2.869  0.002  2.866  0.000  0.001  145.16  106.44    4.38  102.02    0.00    0.04   0.786   0.594   0.537   0.244   0.194   0.174   0.131   0.110   0.096
 1982 051   138  15.60  18.90   3.30  3.206  0.003  3.202  3.156  0.003  3.152  0.000  0.001  148.37  109.60    4.39  105.17    0.00    0.04   0.826   0.656   0.600   0.274   0.219   0.196   0.148   0.125   0.108
 1982 052   139  15.20  21.10  -1.10  3.075  0.004  3.070  3.027  0.004  3.022  0.000  0.001  151.44  112.62    4.39  108.20    0.00    0.04   0.751   0.631   0.586   0.269   0.215   0.194   0.146   0.123   0.107
 1982 053   140  15.60  25.60  -1.10  3.346  0.006  3.340  0.881  0.006  0.874  0.000  0.001  154.79  113.50    4.40  109.07    0.00    0.04   0.717   0.106   0.035   0.008   0.004   0.002   0.001   0.001   0.000
 1982 054   141   1.80  17.80   1.10  0.351  0.001  0.350  0.346  0.001  0.344  0.000  0.001  155.14  113.85    4.40  109.41    0.00    0.04   0.278   0.045   0.015   0.003   0.002   0.001   0.000   0.000   0.000
 1982 055   142  16.10   6.70   0.00  2.580  0.006  2.574  0.791  0.006  0.784  0.000  0.001  157.72  114.64    4.41  110.20    0.00    0.04   0.628   0.105   0.035   0.008   0.004   0.002   0.001   0.001   0.000
 1982 056   143  11.60   2.20  -5.00  0.785  0.002  0.783  0.731  0.002  0.728  0.000  0.001  158.51  115.37    4.41  110.93    0.00    0.04   0.572   0.104   0.035   0.008   0.004   0.002   0.001   0.001   0.000
 1982 057   144  16.90   3.90  -7.80  1.542  0.005  1.538  0.681  0.005  0.676  0.000  0.001  160.05  116.05    4.41  111.60    0.00    0.04   0.521   0.104   0.035   0.008   0.004   0.002   0.001   0.001   0.000
 1982 058   145  15.40  11.10  -7.80  2.406  0.007  2.399  0.637  0.007  0.629  0.000  0.001  162.46  116.69    4.42  112.23    0.00    0.04   0.475   0.103   0.035   0.008   0.004   0.002   0.001   0.001   0.000
 1982 059   146  12.30  13.30  -3.90  2.085  0.007  2.079  0.593  0.007  0.586  0.000  0.001  164.54  117.28    4.43  112.82    0.00    0.04   0.432   0.103   0.035   0.008   0.004   0.002   0.001   0.001   0.000
 1982 060   147  16.20  20.60  -3.90  3.078  0.012  3.065  0.560  0.012  0.547  0.000  0.001  167.62  117.84    4.44  113.36    0.00    0.04   0.394   0.102   0.035   0.008   0.004   0.002   0.001   0.001   0.000
 1982 061   148   4.50  15.60   1.70  0.836  0.004  0.832  0.516  0.004  0.511  0.000  0.001  168.45  118.36    4.44  113.87    0.00    0.04   0.359   0.101   0.035   0.008   0.004   0.002   0.001   0.001   0.000
 1982 062   149   0.80   1.70  -2.20  0.050  0.000  0.050  0.049  0.000  0.048  0.000  0.001  168.50  118.41    4.44  113.92    0.00    0.04   0.033   0.010   0.004   0.001   0.000   0.000   0.000   0.000   0.000
 1982 063   150   5.70  -1.70  -5.60  0.171  0.001  0.170  0.168  0.001  0.167  0.000  0.001  168.68  118.58    4.45  114.09    0.00    0.04   0.114   0.035   0.012   0.003   0.001   0.001   0.000   0.000   0.000
 1982 064   151   8.70  -2.20  -6.10  0.233  0.001  0.232  0.230  0.001  0.228  0.000  0.000  168.91  118.81    4.45  114.32    0.00    0.04   0.154   0.049   0.017   0.004   0.002   0.001   0.000   0.000   0.000
 1982 065   152  18.90   6.10 -12.20  2.489  0.015  2.474  0.488  0.015  0.473  0.000  0.000  171.40  119.29    4.46  114.79    0.00    0.04   0.322   0.100   0.035   0.008   0.004   0.002   0.001   0.001   0.000
 1982 066   153  12.70   3.90 -10.00  1.106  0.006  1.100  0.473  0.006  0.465  0.000  0.001  172.50  119.77    4.47  115.26    0.00    0.04   0.315   0.100   0.035   0.008   0.004   0.002   0.001   0.001   0.000
 1982 067   154  17.90   8.90  -3.90  2.779  0.016  2.763  0.454  0.016  0.437  0.000  0.001  175.28  120.22    4.48  115.69    0.00    0.04   0.287   0.099   0.035   0.008   0.004   0.002   0.001   0.001   0.000
 1982 068   155  13.50  10.60  -7.80  2.057  0.014  2.044  0.425  0.014  0.410  0.000  0.001  177.34  120.65    4.50  116.10    0.00    0.05   0.261   0.098   0.035   0.008   0.004   0.002   0.001   0.001   0.000
 1982 069   156  16.20  26.10  -3.90  3.295  0.023  3.272  0.410  0.023  0.387  0.000  0.001  180.63  121.06    4.52  116.49    0.00    0.05   0.238   0.098   0.035   0.008   0.004   0.002   0.001   0.001   0.000
 1982 070   157  13.60  19.40   0.60  2.619  0.024  2.595  0.389  0.024  0.365  0.000  0.001  183.25  121.45    4.54  116.85    0.00    0.05   0.217   0.097   0.035   0.008   0.004   0.002   0.001   0.001   0.000
 1982 071   158   7.60  22.80   2.80  1.566  0.018  1.547  0.364  0.018  0.345  0.000  0.001  184.82  121.81    4.56  117.20    0.00    0.05   0.198   0.097   0.035   0.008   0.004   0.002   0.001   0.001   0.000
 1982 072   159  17.00  17.80  -1.70  3.114  0.042  3.072  0.369  0.042  0.326  0.000  0.001  187.93  122.18    4.60  117.52    0.00    0.05   0.180   0.096   0.035   0.008   0.004   0.002   0.001   0.001   0.000
 1982 073   160   1.40  10.60   5.00  0.245  0.004  0.241  0.242  0.004  0.237  0.000  0.001  188.18  122.42    4.61  117.76    0.00    0.05   0.133   0.068   0.025   0.005   0.003   0.001   0.001   0.000   0.000
 1982 074   161   5.60  15.00   5.00  1.053  0.019  1.033  1.037  0.019  1.017  0.000  0.001  189.23  123.46    4.63  118.78    0.00    0.05   0.204   0.225   0.213   0.097   0.077   0.069   0.051   0.043   0.038
 1982 075   162  19.40  18.90   7.20  4.161  0.084  4.076  4.098  0.084  4.013  0.000  0.001  193.39  127.55    4.71  122.79    0.00    0.05   1.118   0.839   0.755   0.343   0.268   0.241   0.176   0.146   0.126
 1982 076   163  17.70  23.90   3.90  3.917  0.109  3.808  3.858  0.109  3.749  0.000  0.001  197.31  131.41    4.82  126.54    0.00    0.05   1.003   0.775   0.713   0.327   0.259   0.232   0.172   0.143   0.125
 1982 077   164   2.10  11.70   7.80  0.402  0.015  0.387  0.396  0.015  0.380  0.000  0.001  197.71  131.81    4.84  126.92    0.00    0.05   0.096   0.079   0.074   0.034   0.027   0.024   0.018   0.015   0.013
 1982 078   165  16.60  23.90   8.30  3.786  0.147  3.640  3.730  0.147  3.583  0.000  0.001  201.50  135.54    4.98  130.50    0.00    0.05   0.948   0.744   0.687   0.315   0.250   0.221   0.164   0.136   0.118
 1982 079   166  21.20  14.40   2.20  4.015  0.203  3.812  3.956  0.203  3.753  0.000  0.001  205.51  139.49    5.19  134.26    0.00    0.05   1.008   0.777   0.714   0.327   0.259   0.228   0.170   0.144   0.125
 1982 080   167  20.00   8.90  -3.90  3.195  0.205  2.990  3.149  0.205  2.943  0.000  0.001  208.71  142.64    5.39  137.20    0.00    0.05   0.745   0.612   0.573   0.261   0.207   0.186   0.139   0.118   0.102
 1982 081   168  21.90  12.80  -5.00  3.685  0.241  3.443  3.631  0.241  3.390  0.000  0.001  212.39  146.27    5.63  140.59    0.00    0.05   0.814   0.706   0.671   0.308   0.244   0.220   0.165   0.140   0.121
 1982 082   169  11.40  13.90   1.70  2.091  0.143  1.948  0.974  0.143  0.830  0.000  0.001  214.48  147.25    5.78  141.42    0.00    0.05   0.675   0.104   0.036   0.008   0.004   0.002   0.001   0.001   0.000
 1982 083   170  17.10  13.90  -0.60  3.044  0.244  2.799  1.012  0.244  0.767  0.000  0.001  217.53  148.26    6.02  142.18    0.00    0.06   0.613   0.103   0.036   0.008   0.004   0.002   0.001   0.001   0.000
 1982 084   171  21.50   8.30  -0.60  3.464  0.308  3.156  1.199  0.308  0.891  0.000  0.001  220.99  149.46    6.33  143.08    0.00    0.06   0.738   0.102   0.035   0.008   0.004   0.002   0.001   0.001   0.000
 1982 085   172  21.60  12.20  -6.10  3.559  0.326  3.233  1.330  0.326  1.003  0.000  0.001  224.55  150.79    6.65  144.08    0.00    0.06   0.851   0.102   0.035   0.008   0.004   0.002   0.001   0.001   0.000
 1982 086   173  17.60  11.10   0.00  3.036  0.284  2.752  1.206  0.284  0.922  0.000  0.001  227.59  152.00    6.94  145.00    0.00    0.06   0.771   0.100   0.035   0.008   0.004   0.002   0.001   0.001   0.000
 1982 087   174  12.60  12.20   1.70  2.243  0.223  2.020  1.072  0.223  0.848  0.000  0.001  229.83  153.07    7.16  145.85    0.00    0.06   0.698   0.099   0.035   0.008   0.004   0.002   0.001   0.001   0.000
 1982 088   175   8.20  15.60   5.00  1.584  0.172  1.412  0.954  0.172  0.782  0.000  0.001  231.42  154.02    7.33  146.63    0.00    0.06   0.633   0.098   0.035   0.008   0.004   0.002   0.001   0.001   0.000
 1982 089   176  19.30  20.00  10.00  4.134  0.509  3.624  1.299  0.509  0.789  0.000  0.001  235.55  155.32    7.84  147.42    0.00    0.06   0.641   0.097   0.035   0.008   0.004   0.002   0.001   0.001   0.000
 1982 090   177  23.20  20.00   1.70  4.605  0.697  3.907  1.487  0.697  0.790  0.000  0.001  240.15  156.81    8.54  148.21    0.00    0.06   0.644   0.096   0.034   0.008   0.004   0.002   0.001   0.001   0.000
 1982 091   178  21.70  26.70   1.10  4.667  0.797  3.869  1.518  0.797  0.720  0.000  0.001  244.82  158.33    9.33  148.93    0.00    0.06   0.577   0.094   0.034   0.008   0.004   0.002   0.001   0.001   0.000
 1982 092   179  17.20  27.20   6.70  3.877  0.772  3.104  1.428  0.772  0.655  0.000  0.001  248.70  159.75   10.11  149.59    0.00    0.06   0.514   0.092   0.034   0.008   0.004   0.002   0.001   0.001   0.000
 1982 093   180  23.20  15.00   0.00  4.111  0.946  3.164  1.543  0.946  0.596  0.000  0.001  252.81  161.30   11.05  150.18    0.00    0.06   0.457   0.090   0.033   0.008   0.004   0.002   0.001   0.001   0.000
 1982 094   181  17.80  11.10  -0.60  2.928  0.701  2.226  1.240  0.701  0.538  0.000  0.001  255.74  162.54   11.75  150.72    0.00    0.06   0.402   0.088   0.033   0.008   0.004   0.002   0.001   0.001   0.000
 1982 095   182   8.90   7.80  -0.60  1.378  0.336  1.042  1.116  0.336  0.779  0.000  0.001  257.11  163.65   12.09  151.50    0.00    0.06   0.644   0.087   0.033   0.008   0.004   0.002   0.001   0.001   0.000
 1982 096   183  16.50   5.60  -7.20  2.314  0.570  1.743  1.573  0.570  1.002  0.000  0.001  259.43  165.22   12.66  152.50    0.00    0.06   0.868   0.086   0.033   0.007   0.004   0.002   0.001   0.001   0.000
 1982 097   184   4.70   6.10   0.00  0.727  0.179  0.548  0.718  0.179  0.538  0.000  0.001  260.16  165.94   12.84  153.04    0.00    0.06   0.460   0.050   0.019   0.004   0.002   0.001   0.001   0.000   0.000
 1982 098   185  11.20   9.40  -0.60  1.820  0.451  1.368  1.357  0.451  0.905  0.000  0.001  261.98  167.30   13.29  153.94    0.00    0.07   0.773   0.084   0.032   0.007   0.004   0.002   0.001   0.001   0.000
 1982 099   186  24.50  13.90  -5.60  4.058  1.020  3.037  1.884  1.020  0.863  0.000  0.001  266.03  169.18   14.31  154.81    0.00    0.07   0.733   0.083   0.032   0.007   0.004   0.002   0.001   0.001   0.000
 1982 100   187  23.80  15.60   1.70  4.364  1.111  3.252  1.891  1.111  0.779  0.000  0.001  270.40  171.07   15.42  155.59    0.00    0.07   0.651   0.081   0.032   0.007   0.004   0.002   0.001   0.001   0.000
 1982 101   188  22.60  22.80   4.40  4.690  1.258  3.431  1.959  1.258  0.700  0.000  0.001  275.09  173.03   16.68  156.29    0.00    0.07   0.575   0.079   0.031   0.007   0.004   0.002   0.001   0.001   0.000
 1982 102   189  24.00  29.40  11.10  5.683  1.686  3.996  2.311  1.686  0.625  0.000  0.001  280.77  175.34   18.36  156.91    0.00    0.07   0.503   0.076   0.031   0.007   0.004   0.002   0.001   0.001   0.000
 1982 103   190  23.90  23.90   8.30  5.127  1.718  3.408  2.266  1.718  0.548  0.000  0.001  285.90  177.61   20.08  157.46    0.00    0.07   0.430   0.073   0.030   0.007   0.004   0.002   0.001   0.001   0.000
 1982 104   191  23.80  30.60  11.70  5.661  2.048  3.611  2.534  2.048  0.485  0.000  0.001  291.56  180.14   22.13  157.94    0.00    0.07   0.372   0.069   0.029   0.007   0.004   0.002   0.001   0.001   0.000
 1982 105   192  17.00  30.60  17.80  4.210  1.661  2.548  2.100  1.661  0.439  0.000  0.001  295.77  182.24   23.79  158.38    0.00    0.07   0.331   0.064   0.029   0.007   0.004   0.002   0.001   0.001   0.000
 1982 106   193   8.00  26.70  10.00  1.775  0.746  1.028  1.149  0.746  0.402  0.000  0.001  297.54  183.39   24.54  158.79    0.00    0.07   0.299   0.061   0.028   0.007   0.004   0.002   0.001   0.001   0.000
 1982 107   194  25.90  17.20   2.80  4.725  2.080  2.643  2.453  2.080  0.373  0.000  0.001  302.27  185.85   26.62  159.16    0.00    0.07   0.272   0.059   0.028   0.007   0.004   0.002   0.001   0.001   0.000
 1982 108   195  24.30  23.30   1.10  4.748  2.154  2.592  2.496  2.154  0.342  0.000  0.001  307.02  188.34   28.77  159.50    0.00    0.07   0.247   0.054   0.027   0.007   0.004   0.002   0.001   0.001   0.000
 1982 109   196  23.60  20.00  10.60  4.792  2.250  2.540  2.689  2.250  0.439  0.000  0.001  311.81  191.03   31.02  159.94    0.00    0.07   0.349   0.050   0.026   0.007   0.004   0.002   0.001   0.001   0.000
 1982 110   197  24.50  13.30   0.00  4.090  1.997  2.090  2.526  1.997  0.528  0.000  0.001  315.90  193.56   33.02  160.47    0.00    0.07   0.442   0.048   0.024   0.007   0.003   0.002   0.001   0.001   0.000
 1982 111   198  22.50  16.10  -2.20  3.822  1.888  1.932  2.330  1.888  0.440  0.000  0.001  319.72  195.89   34.91  160.91    0.00    0.07   0.356   0.047   0.024   0.007   0.003   0.002   0.001   0.001   0.000
 1982 112   199  26.40  17.20   0.00  4.658  2.331  2.324  2.730  2.331  0.398  0.000  0.001  324.38  198.62   37.24  161.31    0.00    0.07   0.316   0.045   0.023   0.007   0.003   0.002   0.001   0.001   0.000
 1982 113   200  22.70  21.70   1.70  4.339  2.216  2.120  2.580  2.216  0.363  0.000  0.001  328.72  201.20   39.45  161.67    0.00    0.07   0.284   0.044   0.021   0.006   0.003   0.002   0.001   0.001   0.000
 1982 114   201  19.80  22.20  10.60  4.116  2.168  1.946  2.502  2.168  0.333  0.000  0.001  332.83  203.70   41.62  162.00    0.00    0.08   0.256   0.043   0.020   0.006   0.003   0.002   0.001   0.001   0.000
 1982 115   202  12.20  17.20   8.90  2.328  1.276  1.051  1.605  1.276  0.328  0.000  0.001  335.16  205.30   42.90  162.33    0.00    0.08   0.254   0.042   0.019   0.006   0.003   0.002   0.001   0.001   0.000
 1982 116   203  25.70  21.10   7.20  5.089  2.869  2.217  3.196  2.869  0.326  0.000  0.001  340.25  208.50   45.77  162.66    0.00    0.08   0.253   0.042   0.018   0.006   0.003   0.002   0.001   0.001   0.000
 1982 117   204   7.60  15.60   5.60  1.369  0.792  0.576  1.089  0.789  0.299  0.000  0.001  341.62  209.59   46.56  162.95    0.00    0.08   0.229   0.041   0.016   0.006   0.003   0.002   0.001   0.001   0.000
 1982 118   205   1.50  10.60   6.10  0.251  0.148  0.103  0.249  0.148  0.100  0.000  0.001  341.87  209.84   46.70  163.05    0.00    0.08   0.085   0.009   0.004   0.001   0.001   0.000   0.000   0.000   0.000
 1982 119   206   6.80  13.30   6.70  1.205  0.711  0.494  1.195  0.711  0.483  0.000  0.001  343.08  211.03   47.41  163.54    0.00    0.08   0.428   0.039   0.009   0.003   0.002   0.001   0.001   0.000   0.000
 1982 120   207  10.50  17.20  10.60  2.064  1.237  0.826  2.046  1.237  0.808  0.000  0.001  345.14  213.08   48.65  164.35    0.00    0.08   0.275   0.179   0.077   0.062   0.048   0.054   0.044   0.038   0.033
 1982 121   208  13.70  20.60  11.70  2.836  1.736  1.098  2.746  1.736  1.008  0.000  0.001  347.98  215.82   50.39  165.35    0.00    0.08   0.882   0.099   0.015   0.006   0.003   0.002   0.001   0.001   0.000
 1982 122   209  17.40  23.30  12.80  3.742  2.349  1.391  3.234  2.349  0.883  0.000  0.001  351.72  219.06   52.74  166.24    0.00    0.08   0.761   0.095   0.015   0.006   0.003   0.002   0.001   0.001   0.000
 1982 123   210  19.70  28.30  15.60  4.573  2.953  1.619  3.707  2.953  0.753  0.000  0.001  356.29  222.76   55.69  166.99    0.00    0.09   0.636   0.089   0.015   0.006   0.003   0.002   0.001   0.001   0.000
 1982 124   211  22.90  30.60  18.30  5.536  3.674  1.860  4.293  3.674  0.617  0.000  0.001  361.83  227.06   59.36  167.61    0.00    0.09   0.508   0.083   0.014   0.006   0.003   0.002   0.001   0.001   0.000
 1982 125   212   5.30  26.10  10.00  1.135  0.770  0.364  1.125  0.770  0.354  0.000  0.001  362.96  228.18   60.13  167.96    0.00    0.09   0.279   0.055   0.011   0.004   0.002   0.001   0.001   0.000   0.000
 1982 126   213  14.20  15.00   6.70  2.537  1.737  0.799  2.514  1.737  0.776  0.000  0.001  365.50  230.70   61.87  168.74    0.00    0.09   0.648   0.094   0.022   0.005   0.003   0.002   0.001   0.001   0.000
 1982 127   214  26.50  23.30   5.60  5.323  3.691  1.628  5.274  3.691  1.580  0.000  0.002  370.82  235.97   65.56  170.32    0.00    0.09   0.489   0.364   0.276   0.096   0.072   0.088   0.074   0.064   0.056
 1982 128   215  27.10  27.80  13.30  6.122  4.317  1.801  5.372  4.317  1.053  0.000  0.002  376.95  241.34   69.88  171.37    0.00    0.09   0.895   0.114   0.032   0.005   0.002   0.002   0.001   0.001   0.000
 1982 129   216  24.40  28.30  16.70  5.661  4.082  1.577  4.968  4.082  0.884  0.000  0.002  382.61  246.31   73.96  172.25    0.00    0.10   0.736   0.106   0.031   0.005   0.002   0.002   0.001   0.001   0.000
 1982 130   217  17.90  27.20  17.80  4.117  3.026  1.089  3.763  3.026  0.735  0.000  0.002  386.72  250.07   76.99  172.99    0.00    0.10   0.596   0.098   0.030   0.005   0.002   0.002   0.001   0.001   0.000
 1982 131   218  22.20  28.90  15.00  5.089  3.710  1.376  4.377  3.710  0.665  0.000  0.002  391.81  254.45   80.70  173.65    0.00    0.10   0.533   0.092   0.029   0.005   0.002   0.002   0.001   0.001   0.000
 1982 132   219  10.20  22.80  15.00  2.175  1.573  0.601  2.154  1.573  0.578  0.000  0.003  393.99  256.60   82.27  174.23    0.00    0.10   0.480   0.069   0.022   0.003   0.001   0.001   0.001   0.000   0.000
 1982 133   220  10.80  23.30  16.70  2.372  1.703  0.667  2.349  1.703  0.643  0.000  0.003  396.36  258.95   83.97  174.87    0.00    0.11   0.187   0.143   0.131   0.045   0.025   0.034   0.029   0.026   0.022
 1982 134   221  11.60  22.20  13.30  2.443  1.741  0.701  2.419  1.741  0.675  0.000  0.003  398.80  261.37   85.71  175.55    0.00    0.11   0.195   0.148   0.136   0.051   0.026   0.036   0.031   0.027   0.024
 1982 135   222  26.60  24.40  11.10  5.658  4.004  1.651  5.600  4.004  1.594  0.000  0.003  404.46  266.97   89.72  177.14    0.00    0.11   0.463   0.349   0.321   0.130   0.061   0.082   0.071   0.063   0.054
 1982 136   223  11.40  23.30  15.60  2.485  1.746  0.737  2.459  1.746  0.710  0.000  0.003  406.95  269.43   91.46  177.85    0.00    0.12   0.205   0.153   0.141   0.063   0.028   0.036   0.031   0.028   0.024
 1982 137   224  16.50  23.90  15.00  3.611  2.518  1.091  3.573  2.518  1.052  0.000  0.003  410.56  273.00   93.98  178.91    0.00    0.12   0.310   0.226   0.205   0.093   0.044   0.052   0.046   0.040   0.035
 1982 138   225  25.10  27.80  12.80  5.660  3.916  1.740  5.599  3.916  1.680  0.000  0.003  416.22  278.60   97.90  180.59    0.00    0.12   0.494   0.361   0.324   0.149   0.074   0.083   0.073   0.065   0.056
 1982 139   226  23.50  30.00  17.20  5.618  3.856  1.760  5.558  3.856  1.699  0.000  0.003  421.84  284.16  101.75  182.28    0.00    0.13   0.481   0.358   0.333   0.155   0.079   0.088   0.077   0.069   0.060
 1982 140   227  14.10  26.10  16.10  3.193  2.169  1.022  3.095  2.169  0.923  0.000  0.003  425.03  287.26  103.92  183.21    0.00    0.13   0.774   0.100   0.034   0.008   0.002   0.002   0.001   0.001   0.000
 1982 141   228  20.90  23.30  12.80  4.447  2.999  1.446  4.397  2.999  1.396  0.000  0.003  429.48  291.65  106.92  184.60    0.00    0.13   0.373   0.297   0.280   0.132   0.076   0.071   0.062   0.056   0.049
 1982 142   229  16.90  20.60  11.70  3.463  2.320  1.141  3.424  2.320  1.101  0.000  0.003  432.94  295.08  109.24  185.70    0.00    0.13   0.308   0.232   0.215   0.101   0.070   0.052   0.046   0.042   0.036
 1982 143   230  23.10  24.40  11.70  4.965  3.306  1.656  4.908  3.306  1.599  0.000  0.003  437.90  299.99  112.55  187.30    0.00    0.14   0.432   0.333   0.314   0.145   0.110   0.078   0.069   0.062   0.054
 1982 144   231   9.20  21.70  15.60  1.972  1.304  0.667  1.949  1.304  0.642  0.000  0.003  439.88  301.93  113.85  187.95    0.00    0.14   0.163   0.132   0.128   0.060   0.047   0.033   0.029   0.026   0.023
 1982 145   232  13.70  23.30  16.70  3.021  1.984  1.035  2.986  1.984  0.998  0.000  0.003  442.90  304.92  115.83  188.94    0.00    0.14   0.268   0.209   0.197   0.091   0.070   0.050   0.042   0.038   0.033
 1982 146   233  25.30  21.10  11.70  5.235  3.413  1.820  5.173  3.413  1.757  0.000  0.003  448.13  310.09  119.25  190.70    0.00    0.15   0.483   0.365   0.335   0.155   0.119   0.103   0.077   0.065   0.055
 1982 147   234  28.10  26.70  10.00  6.149  3.983  2.162  6.074  3.983  2.088  0.000  0.003  454.28  316.17  123.23  192.79    0.00    0.15   0.560   0.427   0.389   0.182   0.144   0.135   0.101   0.082   0.069
 1982 148   235  15.50  28.90  17.80  3.700  2.380  1.318  3.655  2.380  1.272  0.000  0.003  457.98  319.82  125.61  194.06    0.00    0.15   0.338   0.262   0.240   0.111   0.088   0.080   0.060   0.050   0.043
 1982 149   236  22.90  26.70  16.10  5.257  3.351  1.903  5.192  3.351  1.838  0.000  0.003  463.24  325.01  128.96  195.90    0.00    0.15   0.485   0.374   0.345   0.161   0.127   0.122   0.090   0.073   0.062
 1982 150   237  17.60  26.10  15.00  3.989  2.521  1.466  3.939  2.521  1.415  0.000  0.003  467.23  328.95  131.48  197.31    0.00    0.16   0.376   0.284   0.262   0.123   0.098   0.092   0.071   0.058   0.049
 1982 151   238  14.30  22.20  13.30  3.046  1.918  1.127  3.008  1.918  1.087  0.000  0.003  470.27  331.96  133.40  198.40    0.00    0.16   0.291   0.220   0.203   0.095   0.075   0.068   0.052   0.044   0.038
 1982 152   239  28.40  20.60   5.00  5.518  3.463  2.052  5.448  3.463  1.982  0.000  0.003  475.79  337.41  136.86  200.38    0.00    0.16   0.536   0.408   0.375   0.172   0.135   0.121   0.092   0.077   0.067
 1982 153   240  10.80  18.30  12.20  2.164  1.355  0.808  2.137  1.355  0.779  0.000  0.003  477.96  339.55  138.22  201.16    0.00    0.17   0.206   0.156   0.148   0.069   0.054   0.049   0.037   0.031   0.027
 1982 154   241   7.50  17.80  12.20  1.495  0.934  0.561  1.476  0.934  0.539  0.000  0.003  479.45  341.02  139.15  201.70    0.00    0.17   0.148   0.106   0.101   0.048   0.037   0.034   0.025   0.022   0.019
 1982 155   242  14.30  21.10  12.80  2.996  1.866  1.129  2.957  1.866  1.089  0.000  0.003  482.45  343.98  141.02  202.79    0.00    0.17   0.311   0.214   0.198   0.094   0.074   0.067   0.050   0.043   0.037
 1982 156   243  21.30  23.30  12.20  4.571  2.838  1.731  4.512  2.838  1.671  0.000  0.003  487.02  348.49  143.86  204.46    0.00    0.18   0.471   0.333   0.302   0.145   0.114   0.104   0.078   0.066   0.058
 1982 157   244  18.70  31.10  20.00  4.656  2.882  1.772  4.596  2.882  1.711  0.000  0.003  491.67  353.09  146.74  206.17    0.00    0.18   0.458   0.339   0.314   0.153   0.120   0.111   0.083   0.071   0.062
 1982 158   245  25.50  28.30  12.20  5.790  3.568  2.220  4.607  3.568  1.036  0.000  0.003  497.46  357.69  150.31  207.21    0.00    0.18   0.876   0.110   0.035   0.008   0.004   0.002   0.001   0.001   0.000
 1982 159   246  20.50  32.20  19.40  5.151  3.170  1.978  5.084  3.170  1.911  0.000  0.003  502.62  362.78  153.48  209.12    0.00    0.18   0.513   0.410   0.358   0.158   0.124   0.116   0.088   0.076   0.067
 1982 160   247  24.80  28.30  17.20  5.869  3.532  2.334  5.790  3.532  2.255  0.000  0.003  508.48  368.57  157.01  211.37    0.00    0.19   0.603   0.475   0.432   0.196   0.149   0.136   0.100   0.087   0.076
 1982 161   248  29.10  24.40   8.30  6.165  3.517  2.645  6.075  3.517  2.555  0.000  0.003  514.65  374.64  160.52  213.93    0.00    0.19   0.685   0.529   0.489   0.225   0.175   0.155   0.114   0.098   0.086
 1982 162   249  11.90  21.70  14.40  2.574  1.338  1.234  2.532  1.338  1.191  0.000  0.003  517.22  377.18  161.86  215.12    0.00    0.19   0.296   0.243   0.233   0.110   0.085   0.076   0.057   0.048   0.043
 1982 163   250  22.90  25.60  13.90  5.215  2.344  2.869  5.119  2.344  2.772  0.000  0.003  522.44  382.29  164.21  217.89    0.00    0.20   0.666   0.563   0.547   0.260   0.202   0.181   0.136   0.116   0.102
 1982 164   251  16.70  26.70  15.00  3.983  0.893  3.090  1.675  0.893  0.779  0.000  0.003  526.42  383.97  165.10  218.67    0.00    0.20   0.634   0.096   0.034   0.008   0.004   0.002   0.001   0.001   0.000
 1982 165   252  13.80  30.00  17.80  3.573  0.000  3.573  0.730  0.000  0.728  0.000  0.003  529.99  384.70  165.10  219.40    0.00    0.20   0.585   0.094   0.034   0.008   0.004   0.002   0.001   0.001   0.000
 1982 166   253  21.60  27.80  17.20  5.428  0.000  5.428  4.887  0.000  4.884  0.000  0.003  535.42  389.59  165.10  224.28    0.00    0.20   1.201   1.010   0.967   0.455   0.347   0.311   0.227   0.194   0.171
 1982 167   254  29.70  24.40  12.80  7.089  0.000  7.089  5.222  0.000  5.219  0.000  0.003  542.51  394.81  165.10  229.50    0.00    0.21   1.403   1.081   0.999   0.466   0.360   0.318   0.231   0.193   0.170
 1982 168   255  21.70  28.90  13.30  5.450  0.000  5.450  4.934  0.000  4.931  0.000  0.003  547.96  399.74  165.10  234.43    0.00    0.21   1.228   1.025   0.969   0.445   0.351   0.316   0.235   0.193   0.169
 1982 169   256  17.60  24.40  17.80  4.311  0.000  4.311  4.170  0.000  4.167  0.000  0.003  552.27  403.91  165.10  238.60    0.00    0.21   0.985   0.859   0.832   0.385   0.305   0.276   0.206   0.171   0.149
 1982 170   257  26.70  25.60  12.80  6.368  0.000  6.368  0.827  0.000  0.823  0.000  0.003  558.64  404.74  165.10  239.42    0.00    0.22   0.673   0.100   0.035   0.008   0.004   0.002   0.001   0.001   0.000
 1982 171   258  27.20  29.40  16.10  6.930  0.000  6.930  0.766  0.000  0.763  0.000  0.003  565.57  405.50  165.10  240.19    0.00    0.22   0.613   0.100   0.035   0.008   0.004   0.002   0.001   0.001   0.000
 1982 172   259  21.70  30.00  14.40  5.475  0.000  5.475  0.711  0.000  0.708  0.000  0.003  571.04  406.22  165.10  240.89    0.00    0.22   0.558   0.099   0.035   0.008   0.004   0.002   0.001   0.001   0.000
 1982 173   260  28.00  27.80  13.90  6.837  0.000  6.837  4.851  0.000  4.849  0.000  0.003  577.88  411.07  165.10  245.74    0.00    0.22   1.166   1.035   0.962   0.440   0.345   0.311   0.231   0.192   0.167
 1982 174   261  16.50  26.70  16.70  4.177  0.000  4.177  4.040  0.000  4.037  0.000  0.003  582.06  415.11  165.10  249.78    0.00    0.23   1.108   0.846   0.766   0.347   0.271   0.243   0.178   0.148   0.129

*DSSAT Cropping System Model Ver. 4.5.1.023 -Stub         OCT 13, 2014; 10:45:28
                                                                                
*RUN   2        : DRYLAND  - 60 KG N/HA     CSCER045 KSAS8101    2              
 MODEL          : CSCER045 - Wheat                                              
 EXPERIMENT     : KSAS8101 WH                                                   
 DATA PATH      :                                                               
 TREATMENT  2   : DRYLAND  - 60 KG N/HA     CSCER045                            
  
!                                                                                                                                                Soil evaporation (mm/d) by soil depth (cm):
!                                                                                                                                                0-5    5-15   15-30   30-45   45-60   60-90  90-120 120-150 150-180
@YEAR DOY   DAS   SRAA  TMAXA  TMINA   EOAA   EOPA   EOSA   ETAA   EPAA   ESAA   EFAA   EMAA    EOAC    ETAC    EPAC    ESAC    EFAC    EMAC    ES1D    ES2D    ES3D    ES4D    ES5D    ES6D    ES7D    ES8D    ES9D
 1981 279     1  16.50  18.90   9.40  3.614  0.000  3.614  0.954  0.000  0.954  0.000  0.000    3.61    0.95    0.00    0.95    0.00    0.00   0.817   0.103   0.025   0.004   0.002   0.001   0.001   0.000   0.000
 1981 280     2  12.30  17.80   6.10  2.560  0.000  2.560  0.881  0.000  0.881  0.000  0.000    6.17    1.83    0.00    1.83    0.00    0.00   0.744   0.102   0.025   0.004   0.002   0.001   0.001   0.000   0.000
 1981 281     3  13.70  18.90   2.80  2.793  0.000  2.793  0.814  0.000  0.814  0.000  0.000    8.97    2.65    0.00    2.65    0.00    0.00   0.678   0.102   0.025   0.004   0.002   0.001   0.001   0.000   0.000
 1981 282     4   3.20  15.60  12.80  0.681  0.000  0.681  0.681  0.000  0.681  0.000  0.000    9.65    3.33    0.00    3.33    0.00    0.00   0.559   0.091   0.023   0.004   0.002   0.001   0.001   0.000   0.000
 1981 283     5  11.60  18.30   7.20  2.426  0.000  2.426  0.703  0.000  0.703  0.000  0.000   12.07    4.03    0.00    4.03    0.00    0.00   0.568   0.101   0.025   0.004   0.002   0.001   0.001   0.000   0.000
 1981 284     6   4.40  18.30   7.80  0.922  0.000  0.922  0.652  0.000  0.652  0.000  0.000   13.00    4.68    0.00    4.68    0.00    0.00   0.517   0.100   0.025   0.004   0.002   0.001   0.001   0.000   0.000
 1981 285     7   1.70  18.30  13.90  0.375  0.000  0.375  0.375  0.000  0.375  0.000  0.000   13.37    5.06    0.00    5.06    0.00    0.00   0.315   0.045   0.011   0.002   0.001   0.001   0.000   0.000   0.000
 1981 286     8   1.80  20.60  17.80  0.437  0.000  0.437  0.437  0.000  0.437  0.000  0.000   13.81    5.50    0.00    5.50    0.00    0.00   0.150   0.102   0.069   0.026   0.021   0.022   0.018   0.015   0.013
 1981 287     9   6.80  20.60  13.30  1.586  0.000  1.586  1.586  0.000  1.586  0.000  0.000   15.39    7.08    0.00    7.08    0.00    0.00   0.551   0.376   0.247   0.093   0.074   0.080   0.064   0.054   0.047
 1981 288    10   6.40  17.20   9.40  1.380  0.000  1.380  1.380  0.000  1.380  0.000  0.000   16.77    8.46    0.00    8.46    0.00    0.00   0.471   0.334   0.215   0.082   0.065   0.070   0.056   0.047   0.041
 1981 289    11   3.40  16.70   8.90  0.722  0.000  0.722  0.722  0.000  0.722  0.000  0.000   17.50    9.18    0.00    9.18    0.00    0.00   0.622   0.076   0.017   0.003   0.002   0.001   0.001   0.000   0.000
 1981 290    12  12.50  20.00  12.20  2.849  0.000  2.849  2.849  0.000  2.849  0.000  0.000   20.35   12.03    0.00   12.03    0.00    0.00   0.933   0.711   0.490   0.161   0.128   0.138   0.112   0.094   0.082
 1981 291    13  12.20  12.80   6.10  2.388  0.000  2.388  2.388  0.000  2.388  0.000  0.000   22.73   14.42    0.00   14.42    0.00    0.00   0.765   0.589   0.455   0.130   0.104   0.112   0.091   0.076   0.066
 1981 292    14  15.70  24.40   0.00  3.410  0.000  3.410  1.000  0.000  1.000  0.000  0.000   26.14   15.42    0.00   15.42    0.00    0.00   0.845   0.114   0.032   0.004   0.002   0.001   0.001   0.000   0.000
 1981 293    15  15.10  23.30  11.70  3.562  0.000  3.562  0.924  0.000  0.924  0.000  0.000   29.71   16.35    0.00   16.35    0.00    0.00   0.770   0.113   0.032   0.004   0.002   0.001   0.001   0.000   0.000
 1981 294    16  11.00  16.70   6.70  2.260  0.000  2.260  0.855  0.000  0.855  0.000  0.000   31.97   17.20    0.00   17.20    0.00    0.00   0.701   0.112   0.032   0.004   0.002   0.001   0.001   0.000   0.000
 1981 295    17  13.90  10.60   1.70  2.457  0.000  2.457  0.792  0.000  0.792  0.000  0.000   34.42   17.99    0.00   17.99    0.00    0.00   0.639   0.112   0.032   0.004   0.002   0.001   0.001   0.000   0.000
 1981 296    18  15.10   7.20  -3.30  2.360  0.003  2.357  0.737  0.003  0.734  0.000  0.000   36.78   18.73    0.00   18.73    0.00    0.00   0.582   0.111   0.032   0.004   0.002   0.001   0.001   0.000   0.000
 1981 297    19   4.90  11.10   1.10  0.861  0.001  0.860  0.683  0.001  0.682  0.000  0.000   37.64   19.41    0.00   19.41    0.00    0.00   0.530   0.110   0.032   0.004   0.002   0.001   0.001   0.000   0.000
 1981 298    20   5.80  11.10   5.60  1.066  0.002  1.063  0.770  0.002  0.767  0.000  0.000   38.71   20.18    0.01   20.18    0.00    0.00   0.616   0.110   0.032   0.004   0.002   0.001   0.001   0.000   0.000
 1981 299    21  13.00  15.60   0.00  2.454  0.011  2.443  0.891  0.011  0.881  0.000  0.000   41.16   21.07    0.02   21.06    0.00    0.00   0.731   0.109   0.032   0.004   0.002   0.001   0.001   0.000   0.000
 1981 300    22  13.10  21.70   5.60  2.854  0.017  2.836  0.868  0.017  0.850  0.000  0.000   44.02   21.94    0.03   21.91    0.00    0.00   0.701   0.109   0.032   0.004   0.002   0.001   0.001   0.000   0.000
 1981 301    23  12.10  21.70  10.60  2.741  0.027  2.714  0.814  0.027  0.786  0.000  0.000   46.76   22.75    0.06   22.69    0.00    0.00   0.638   0.108   0.032   0.004   0.002   0.001   0.001   0.000   0.000
 1981 302    24  12.30  25.00  10.00  2.877  0.042  2.835  0.770  0.042  0.728  0.000  0.000   49.63   23.52    0.10   23.42    0.00    0.00   0.580   0.107   0.032   0.004   0.002   0.001   0.001   0.000   0.000
 1981 303    25   2.90  18.30  13.90  0.641  0.013  0.628  0.641  0.013  0.628  0.000  0.000   50.27   24.17    0.12   24.05    0.00    0.00   0.491   0.099   0.030   0.004   0.002   0.001   0.001   0.000   0.000
 1981 304    26   1.80  15.60  12.20  0.376  0.009  0.367  0.376  0.009  0.367  0.000  0.000   50.65   24.54    0.13   24.42    0.00    0.00   0.284   0.060   0.018   0.002   0.001   0.001   0.000   0.000   0.000
 1981 305    27   2.90  15.00   9.40  0.586  0.017  0.568  0.586  0.017  0.568  0.000  0.000   51.24   25.13    0.14   24.98    0.00    0.00   0.145   0.134   0.117   0.045   0.036   0.035   0.024   0.017   0.015
 1981 306    28   2.80  13.30   7.20  0.558  0.019  0.539  0.558  0.019  0.539  0.000  0.000   51.79   25.69    0.16   25.52    0.00    0.00   0.153   0.114   0.103   0.048   0.038   0.034   0.023   0.014   0.012
 1981 307    29   6.20  15.60   7.20  1.278  0.047  1.231  1.278  0.047  1.231  0.000  0.000   53.07   26.96    0.21   26.75    0.00    0.00   0.341   0.256   0.234   0.110   0.088   0.078   0.057   0.038   0.028
 1981 308    30   3.60  12.20   8.30  0.710  0.029  0.681  0.709  0.029  0.681  0.000  0.000   53.78   27.67    0.24   27.44    0.00    0.00   0.187   0.141   0.129   0.060   0.048   0.044   0.032   0.024   0.016
 1981 309    31  12.20  15.60   5.60  2.472  0.108  2.363  2.472  0.108  2.363  0.000  0.000   56.25   30.14    0.35   29.80    0.00    0.00   0.655   0.489   0.440   0.207   0.163   0.148   0.112   0.089   0.061
 1981 310    32  12.80  15.60  -2.20  2.386  0.112  2.274  2.386  0.112  2.274  0.000  0.000   58.64   32.53    0.46   32.07    0.00    0.00   0.616   0.470   0.429   0.198   0.156   0.141   0.106   0.088   0.071
 1981 311    33   9.20  19.40   0.00  1.849  0.089  1.759  1.849  0.089  1.759  0.000  0.000   60.49   34.38    0.55   33.83    0.00    0.00   0.461   0.366   0.338   0.154   0.122   0.109   0.082   0.070   0.059
 1981 312    34   1.10  16.70   5.00  0.222  0.011  0.211  0.222  0.011  0.211  0.000  0.000   60.71   34.60    0.56   34.04    0.00    0.00   0.056   0.044   0.040   0.019   0.015   0.013   0.010   0.008   0.007
 1981 313    35  12.60   7.80  -2.80  2.046  0.108  1.938  2.046  0.108  1.938  0.000  0.000   62.76   36.65    0.67   35.98    0.00    0.00   0.532   0.399   0.363   0.168   0.133   0.121   0.088   0.072   0.061
 1981 314    36  11.90  15.00  -3.90  2.156  0.114  2.042  2.156  0.114  2.042  0.000  0.000   64.91   38.80    0.78   38.02    0.00    0.00   0.551   0.421   0.386   0.177   0.140   0.127   0.095   0.078   0.067
 1981 315    37  11.40  16.10  -1.10  2.154  0.116  2.038  2.154  0.116  2.038  0.000  0.000   67.07   40.96    0.90   40.06    0.00    0.00   0.537   0.424   0.389   0.177   0.140   0.126   0.095   0.081   0.069
 1981 316    38  11.10  20.00   1.70  2.279  0.126  2.152  2.279  0.126  2.152  0.000  0.000   69.35   43.24    1.02   42.21    0.00    0.00   0.548   0.448   0.415   0.190   0.151   0.136   0.102   0.087   0.075
 1981 317    39  10.90  19.40   1.70  2.210  0.130  2.080  2.210  0.130  2.080  0.000  0.000   71.56   45.45    1.15   44.29    0.00    0.00   0.509   0.434   0.407   0.187   0.149   0.134   0.101   0.086   0.074
 1981 318    40   7.90  18.30   7.80  1.665  0.103  1.562  1.664  0.103  1.562  0.000  0.000   73.22   47.11    1.25   45.86    0.00    0.00   0.368   0.326   0.309   0.143   0.114   0.103   0.077   0.066   0.057
 1981 319    41   8.50  20.00  10.00  1.865  0.122  1.742  1.864  0.122  1.742  0.000  0.000   75.09   48.97    1.38   47.60    0.00    0.00   0.398   0.363   0.348   0.161   0.129   0.117   0.088   0.075   0.064
 1981 320    42  10.90  20.00  15.00  2.489  0.175  2.315  0.979  0.175  0.804  0.000  0.000   77.57   49.95    1.55   48.40    0.00    0.00   0.652   0.102   0.035   0.008   0.004   0.002   0.001   0.001   0.000
 1981 321    43  10.40  23.30   2.20  2.206  0.167  2.038  0.909  0.167  0.742  0.000  0.000   79.78   50.86    1.72   49.14    0.00    0.00   0.590   0.101   0.035   0.008   0.004   0.002   0.001   0.001   0.000
 1981 322    44   6.80  18.90   9.40  1.444  0.116  1.328  0.800  0.116  0.685  0.000  0.000   81.22   51.66    1.83   49.83    0.00    0.00   0.534   0.100   0.035   0.008   0.004   0.002   0.001   0.001   0.000
 1981 323    45   2.30   9.40  -1.10  0.377  0.032  0.345  0.377  0.032  0.345  0.000  0.000   81.60   52.04    1.87   50.17    0.00    0.00   0.264   0.054   0.019   0.004   0.002   0.001   0.001   0.000   0.000
 1981 324    46  10.00   3.90  -3.90  0.957  0.082  0.876  0.691  0.082  0.610  0.000  0.000   82.56   52.73    1.95   50.78    0.00    0.00   0.460   0.099   0.035   0.008   0.004   0.002   0.001   0.001   0.000
 1981 325    47  10.10  10.60  -5.60  1.597  0.136  1.461  0.702  0.136  0.566  0.000  0.000   84.16   53.43    2.08   51.35    0.00    0.00   0.418   0.098   0.035   0.008   0.004   0.002   0.001   0.001   0.000
 1981 326    48   7.00  17.20  -3.30  1.267  0.108  1.158  0.635  0.108  0.527  0.000  0.000   85.42   54.07    2.19   51.88    0.00    0.00   0.379   0.097   0.035   0.008   0.004   0.002   0.001   0.001   0.000
 1981 327    49   9.10  15.00   6.10  1.748  0.152  1.596  0.644  0.152  0.491  0.000  0.000   87.17   54.71    2.34   52.37    0.00    0.00   0.345   0.096   0.035   0.008   0.004   0.002   0.001   0.001   0.000
 1981 328    50   8.00  12.80   0.00  1.390  0.126  1.265  0.585  0.126  0.459  0.000  0.000   88.56   55.30    2.47   52.83    0.00    0.00   0.314   0.095   0.034   0.008   0.004   0.002   0.001   0.001   0.000
 1981 329    51   8.50  19.40   5.00  1.714  0.157  1.557  0.588  0.157  0.430  0.000  0.000   90.27   55.88    2.63   53.26    0.00    0.00   0.286   0.094   0.034   0.008   0.004   0.002   0.001   0.001   0.000
 1981 330    52   6.20  10.00   3.30  1.063  0.102  0.961  0.505  0.102  0.404  0.000  0.000   91.34   56.39    2.73   53.66    0.00    0.00   0.260   0.093   0.034   0.008   0.004   0.002   0.001   0.001   0.000
 1981 331    53   5.70   5.00  -6.70  0.787  0.077  0.711  0.456  0.076  0.379  0.000  0.000   92.12   56.85    2.81   54.04    0.00    0.00   0.237   0.093   0.034   0.008   0.004   0.002   0.001   0.001   0.000
 1981 332    54   5.40   6.10  -1.10  0.818  0.080  0.739  0.437  0.080  0.358  0.000  0.000   92.94   57.28    2.88   54.40    0.00    0.00   0.216   0.092   0.034   0.008   0.004   0.002   0.001   0.001   0.000
 1981 333    55   4.60   9.40  -3.30  0.720  0.070  0.650  0.407  0.070  0.337  0.000  0.000   93.66   57.69    2.95   54.74    0.00    0.00   0.197   0.091   0.034   0.008   0.004   0.002   0.001   0.001   0.000
 1981 334    56   0.70   7.80   3.90  0.116  0.011  0.105  0.116  0.011  0.105  0.000  0.000   93.78   57.81    2.97   54.84    0.00    0.00   0.082   0.015   0.005   0.001   0.001   0.000   0.000   0.000   0.000
 1981 335    57   2.80   4.40   0.00  0.322  0.031  0.291  0.322  0.031  0.291  0.000  0.000   94.10   58.13    3.00   55.13    0.00    0.00   0.082   0.062   0.054   0.024   0.019   0.017   0.013   0.011   0.009
 1981 336    58   8.00   8.90  -1.70  1.333  0.129  1.203  1.332  0.129  1.203  0.000  0.000   95.43   59.46    3.13   56.33    0.00    0.00   0.330   0.249   0.227   0.104   0.082   0.072   0.054   0.046   0.039
 1981 337    59   9.80  10.60  -1.70  1.673  0.162  1.511  1.672  0.162  1.510  0.000  0.000   97.11   61.13    3.29   57.84    0.00    0.00   0.410   0.311   0.286   0.130   0.103   0.093   0.069   0.059   0.051
 1981 338    60   9.90   8.90  -1.10  1.647  0.159  1.488  1.647  0.159  1.488  0.000  0.000   98.75   62.78    3.45   59.33    0.00    0.00   0.394   0.307   0.284   0.130   0.103   0.093   0.069   0.059   0.051
 1981 339    61   3.50  10.60  -2.80  0.587  0.057  0.530  0.587  0.057  0.530  0.000  0.000   99.34   63.37    3.50   59.86    0.00    0.00   0.137   0.109   0.102   0.047   0.037   0.034   0.025   0.021   0.018
 1981 340    62   6.90  16.10   1.70  1.328  0.128  1.200  1.328  0.128  1.200  0.000  0.000  100.67   64.69    3.63   61.06    0.00    0.00   0.307   0.248   0.231   0.106   0.084   0.076   0.057   0.049   0.042
 1981 341    63   9.00  17.80   5.60  1.842  0.180  1.662  1.841  0.180  1.662  0.000  0.000  102.51   66.53    3.81   62.72    0.00    0.00   0.416   0.343   0.323   0.149   0.118   0.107   0.080   0.068   0.059
 1981 342    64   7.90  10.60  -3.30  1.309  0.130  1.178  1.308  0.130  1.178  0.000  0.000  103.82   67.84    3.94   63.90    0.00    0.00   0.286   0.243   0.231   0.107   0.085   0.077   0.058   0.049   0.042
 1981 343    65   8.60   6.70  -2.20  1.343  0.134  1.209  1.342  0.134  1.208  0.000  0.000  105.16   69.18    4.07   65.11    0.00    0.00   0.287   0.249   0.238   0.111   0.088   0.080   0.060   0.051   0.044
 1981 344    66   2.30   2.20  -2.80  0.161  0.016  0.145  0.161  0.016  0.145  0.000  0.000  105.32   69.35    4.09   65.25    0.00    0.00   0.034   0.030   0.029   0.013   0.011   0.010   0.007   0.006   0.005
 1981 345    67   1.80   3.90   1.10  0.186  0.018  0.168  0.186  0.018  0.168  0.000  0.000  105.51   69.53    4.11   65.42    0.00    0.00   0.039   0.035   0.033   0.016   0.012   0.011   0.008   0.007   0.006
 1981 346    68   1.60   3.90   1.70  0.167  0.017  0.150  0.167  0.017  0.150  0.000  0.000  105.68   69.70    4.13   65.57    0.00    0.00   0.035   0.031   0.030   0.014   0.011   0.010   0.008   0.006   0.006
 1981 347    69   1.30   4.40   0.60  0.148  0.015  0.133  0.147  0.015  0.133  0.000  0.000  105.82   69.85    4.14   65.71    0.00    0.00   0.031   0.027   0.026   0.012   0.010   0.009   0.007   0.006   0.005
 1981 348    70   8.40   2.80  -1.70  0.673  0.066  0.606  0.672  0.066  0.606  0.000  0.000  106.50   70.52    4.21   66.31    0.00    0.00   0.142   0.124   0.120   0.056   0.045   0.041   0.030   0.026   0.022
 1981 349    71   4.20   2.20  -2.20  0.297  0.029  0.268  0.297  0.029  0.267  0.000  0.000  106.79   70.81    4.24   66.58    0.00    0.00   0.220   0.031   0.011   0.002   0.001   0.001   0.000   0.000   0.000
 1981 350    72   0.70  -1.10  -8.30  0.023  0.002  0.021  0.023  0.002  0.021  0.000  0.000  106.82   70.84    4.24   66.60    0.00    0.00   0.017   0.002   0.001   0.000   0.000   0.000   0.000   0.000   0.000
 1981 351    73   8.20  -8.30 -16.70  0.051  0.005  0.046  0.051  0.005  0.046  0.000  0.000  106.87   70.89    4.24   66.65    0.00    0.00   0.038   0.006   0.002   0.000   0.000   0.000   0.000   0.000   0.000
 1981 352    74   6.70  -9.40 -17.80  0.033  0.002  0.031  0.033  0.002  0.031  0.000  0.000  106.90   70.92    4.24   66.68    0.00    0.00   0.025   0.004   0.001   0.000   0.000   0.000   0.000   0.000   0.000
 1981 353    75   9.30  -5.00 -17.80  0.116  0.002  0.114  0.115  0.002  0.113  0.000  0.000  107.02   71.04    4.25   66.79    0.00    0.00   0.093   0.014   0.005   0.001   0.001   0.000   0.000   0.000   0.000
 1981 354    76   3.10   2.80 -11.10  0.218  0.002  0.216  0.216  0.002  0.213  0.000  0.000  107.24   71.25    4.25   67.00    0.00    0.00   0.179   0.023   0.008   0.002   0.001   0.000   0.000   0.000   0.000
 1981 355    77   1.60   2.80   1.10  0.136  0.001  0.134  0.134  0.001  0.132  0.000  0.000  107.37   71.39    4.25   67.13    0.00    0.00   0.038   0.026   0.024   0.011   0.009   0.008   0.006   0.005   0.005
 1981 356    78   1.90   2.80   0.60  0.161  0.002  0.159  0.159  0.002  0.157  0.000  0.001  107.53   71.54    4.25   67.29    0.00    0.00   0.045   0.031   0.028   0.013   0.011   0.010   0.007   0.006   0.005
 1981 357    79   9.20   5.00  -7.20  1.328  0.014  1.314  1.311  0.014  1.296  0.000  0.000  108.86   72.85    4.27   68.59    0.00    0.00   0.364   0.265   0.234   0.110   0.088   0.080   0.060   0.051   0.044
 1981 358    80   9.50   7.20  -7.80  1.417  0.015  1.402  1.059  0.015  1.044  0.000  0.000  110.28   73.91    4.28   69.63    0.00    0.00   0.884   0.110   0.035   0.008   0.004   0.002   0.001   0.001   0.000
 1981 359    81   6.70   7.20  -3.90  1.046  0.011  1.034  0.976  0.011  0.964  0.000  0.000  111.32   74.89    4.29   70.60    0.00    0.00   0.805   0.109   0.034   0.008   0.004   0.002   0.001   0.001   0.000
 1981 360    82   7.10   3.30  -6.70  0.592  0.006  0.586  0.584  0.006  0.577  0.000  0.000  111.92   75.47    4.30   71.17    0.00    0.00   0.475   0.070   0.022   0.005   0.003   0.001   0.001   0.000   0.000
 1981 361    83   2.10   2.20  -8.30  0.137  0.001  0.135  0.135  0.001  0.133  0.000  0.000  112.05   75.61    4.30   71.31    0.00    0.00   0.108   0.017   0.005   0.001   0.001   0.000   0.000   0.000   0.000
 1981 362    84   6.80   0.00  -8.90  0.280  0.003  0.277  0.277  0.003  0.273  0.000  0.000  112.33   75.89    4.30   71.58    0.00    0.00   0.222   0.035   0.011   0.002   0.001   0.001   0.000   0.000   0.000
 1981 363    85   9.80   4.40 -11.70  0.944  0.010  0.934  0.843  0.010  0.832  0.000  0.000  113.28   76.73    4.31   72.41    0.00    0.00   0.675   0.108   0.034   0.008   0.004   0.002   0.001   0.001   0.000
 1981 364    86   6.70  10.60  -7.20  1.056  0.011  1.045  0.796  0.011  0.784  0.000  0.001  114.33   77.52    4.32   73.20    0.00    0.00   0.627   0.107   0.034   0.008   0.004   0.002   0.001   0.001   0.000
 1981 365    87   7.20   6.70  -6.70  1.056  0.012  1.045  0.740  0.012  0.728  0.000  0.001  115.39   78.26    4.34   73.92    0.00    0.01   0.571   0.106   0.034   0.008   0.004   0.002   0.001   0.001   0.000
 1982 001    88   2.30  -2.20 -10.00  0.059  0.001  0.058  0.058  0.001  0.057  0.000  0.000  115.45   78.32    4.34   73.98    0.00    0.01   0.044   0.009   0.003   0.001   0.000   0.000   0.000   0.000   0.000
 1982 002    89   1.00   6.10  -4.40  0.149  0.002  0.147  0.147  0.002  0.145  0.000  0.000  115.60   78.47    4.34   74.12    0.00    0.01   0.115   0.020   0.007   0.001   0.001   0.000   0.000   0.000   0.000
 1982 003    90   1.70  -3.30  -9.40  0.035  0.000  0.035  0.035  0.000  0.034  0.000  0.000  115.63   78.50    4.34   74.16    0.00    0.01   0.028   0.004   0.001   0.000   0.000   0.000   0.000   0.000   0.000
 1982 004    91  10.10   2.80 -15.00  0.669  0.007  0.662  0.660  0.007  0.652  0.000  0.001  116.30   79.16    4.35   74.81    0.00    0.01   0.548   0.072   0.022   0.005   0.003   0.001   0.001   0.000   0.000
 1982 005    92   9.60   6.10  -9.40  1.378  0.015  1.363  1.359  0.015  1.344  0.000  0.001  117.68   80.52    4.36   76.15    0.00    0.01   0.379   0.282   0.240   0.112   0.090   0.082   0.061   0.052   0.045
 1982 006    93   4.00  -6.70 -15.00  0.037  0.000  0.037  0.037  0.000  0.036  0.000  0.000  117.72   80.56    4.36   76.19    0.00    0.01   0.030   0.004   0.001   0.000   0.000   0.000   0.000   0.000   0.000
 1982 007    94  10.10  -5.60 -17.20  0.114  0.001  0.113  0.112  0.001  0.111  0.000  0.000  117.83   80.67    4.36   76.30    0.00    0.01   0.094   0.012   0.004   0.001   0.000   0.000   0.000   0.000   0.000
 1982 008    95   7.70   5.00 -10.60  1.056  0.007  1.049  1.042  0.007  1.034  0.000  0.000  118.89   81.71    4.37   77.34    0.00    0.01   0.873   0.112   0.034   0.007   0.004   0.002   0.001   0.001   0.000
 1982 009    96   6.00  -1.70 -15.00  0.159  0.001  0.158  0.156  0.001  0.155  0.000  0.001  119.04   81.87    4.37   77.49    0.00    0.01   0.129   0.018   0.006   0.001   0.001   0.000   0.000   0.000   0.000
 1982 010    97   9.90 -11.10 -26.10  0.026  0.000  0.026  0.026  0.000  0.025  0.000  0.000  119.07   81.90    4.37   77.52    0.00    0.01   0.021   0.003   0.001   0.000   0.000   0.000   0.000   0.000   0.000
 1982 011    98   8.80  -5.60 -21.10  0.090  0.000  0.090  0.089  0.000  0.088  0.000  0.001  119.16   81.99    4.37   77.60    0.00    0.01   0.073   0.010   0.003   0.001   0.000   0.000   0.000   0.000   0.000
 1982 012    99   4.40  -7.20 -11.10  0.040  0.000  0.040  0.039  0.000  0.039  0.000  0.001  119.20   82.02    4.37   77.64    0.00    0.01   0.032   0.005   0.001   0.000   0.000   0.000   0.000   0.000   0.000
 1982 013   100  11.00  -7.80 -21.10  0.070  0.000  0.070  0.069  0.000  0.068  0.000  0.001  119.27   82.09    4.37   77.71    0.00    0.01   0.057   0.008   0.003   0.001   0.000   0.000   0.000   0.000   0.000
 1982 014   101   9.70   8.30 -14.40  1.343  0.001  1.342  1.033  0.001  1.032  0.000  0.001  120.61   83.13    4.37   78.74    0.00    0.01   0.868   0.113   0.035   0.008   0.004   0.002   0.001   0.001   0.000
 1982 015   102   5.90   5.60  -8.30  0.847  0.000  0.846  0.834  0.000  0.833  0.000  0.001  121.46   83.96    4.37   79.58    0.00    0.01   0.227   0.177   0.151   0.070   0.056   0.051   0.038   0.033   0.028
 1982 016   103  11.00  -8.30 -20.00  0.065  0.000  0.065  0.064  0.000  0.063  0.000  0.001  121.53   84.02    4.37   79.64    0.00    0.01   0.053   0.007   0.002   0.000   0.000   0.000   0.000   0.000   0.000
[...]
 1982 082   169  11.40  13.90   1.70  2.091  0.143  1.948  0.972  0.143  0.828  0.000  0.001  214.48  147.23    5.77  141.40    0.00    0.05   0.673   0.104   0.036   0.008   0.004   0.002   0.001   0.001   0.000
 1982 083   170  17.10  13.90  -0.60  3.044  0.244  2.799  1.010  0.244  0.765  0.000  0.001  217.52  148.24    6.02  142.17    0.00    0.06   0.611   0.103   0.036   0.008   0.004   0.002   0.001   0.001   0.000
 1982 084   171  21.50   8.30  -0.60  3.463  0.308  3.155  1.197  0.308  0.889  0.000  0.001  220.99  149.44    6.33  143.05    0.00    0.06   0.736   0.102   0.035   0.008   0.004   0.002   0.001   0.001   0.000
 1982 085   172  21.60  12.20  -6.10  3.559  0.326  3.232  1.328  0.326  1.001  0.000  0.001  224.55  150.77    6.65  144.06    0.00    0.06   0.849   0.101   0.035   0.008   0.004   0.002   0.001   0.001   0.000
 1982 086   173  17.60  11.10   0.00  3.036  0.284  2.752  1.204  0.284  0.919  0.000  0.001  227.58  151.97    6.94  144.97    0.00    0.06   0.768   0.100   0.035   0.008   0.004   0.002   0.001   0.001   0.000
 1982 087   174  12.60  12.20   1.70  2.243  0.223  2.020  1.068  0.223  0.845  0.000  0.001  229.83  153.04    7.16  145.82    0.00    0.06   0.695   0.099   0.035   0.008   0.004   0.002   0.001   0.001   0.000
 1982 088   175   8.20  15.60   5.00  1.584  0.172  1.412  0.951  0.172  0.778  0.000  0.001  231.41  153.99    7.33  146.60    0.00    0.06   0.630   0.098   0.035   0.008   0.004   0.002   0.001   0.001   0.000
 1982 089   176  19.30  20.00  10.00  4.133  0.509  3.623  1.295  0.509  0.785  0.000  0.001  235.54  155.28    7.84  147.38    0.00    0.06   0.638   0.097   0.035   0.008   0.004   0.002   0.001   0.001   0.000
 1982 090   177  23.20  20.00   1.70  4.603  0.697  3.906  1.483  0.697  0.785  0.000  0.001  240.15  156.77    8.54  148.17    0.00    0.06   0.640   0.096   0.034   0.008   0.004   0.002   0.001   0.001   0.000
 1982 091   178  21.70  26.70   1.10  4.664  0.807  3.857  1.522  0.807  0.715  0.000  0.001  244.81  158.29    9.34  148.88    0.00    0.06   0.572   0.094   0.034   0.008   0.004   0.002   0.001   0.001   0.000
 1982 092   179  17.20  27.20   6.70  3.873  0.796  3.076  1.445  0.796  0.649  0.000  0.001  248.68  159.73   10.14  149.53    0.00    0.06   0.508   0.091   0.034   0.008   0.004   0.002   0.001   0.001   0.000
 1982 093   180  23.20  15.00   0.00  4.103  0.998  3.103  1.588  0.998  0.589  0.000  0.001  252.79  161.32   11.14  150.12    0.00    0.06   0.450   0.089   0.033   0.008   0.004   0.002   0.001   0.001   0.000
 1982 094   181  17.80  11.10  -0.60  2.921  0.746  2.174  1.278  0.746  0.531  0.000  0.001  255.71  162.60   11.88  150.65    0.00    0.06   0.395   0.087   0.033   0.008   0.004   0.002   0.001   0.001   0.000
 1982 095   182   8.90   7.80  -0.60  1.375  0.359  1.015  1.133  0.359  0.773  0.000  0.001  257.08  163.73   12.24  151.43    0.00    0.06   0.640   0.085   0.033   0.008   0.004   0.002   0.001   0.001   0.000
 1982 096   183  16.50   5.60  -7.20  2.307  0.609  1.697  2.280  0.609  1.670  0.000  0.001  259.39  166.01   12.85  153.10    0.00    0.06   0.463   0.312   0.305   0.146   0.116   0.111   0.084   0.071   0.062
 1982 097   184   4.70   6.10   0.00  0.731  0.193  0.538  0.723  0.193  0.529  0.000  0.001  260.12  166.73   13.05  153.62    0.00    0.06   0.142   0.108   0.099   0.045   0.036   0.034   0.025   0.021   0.019
 1982 098   185  11.20   9.40  -0.60  1.831  0.487  1.343  1.810  0.487  1.322  0.000  0.001  261.95  168.54   13.53  154.95    0.00    0.07   0.358   0.270   0.247   0.113   0.090   0.082   0.063   0.053   0.046
 1982 099   186  24.50  13.90  -5.60  4.082  1.103  2.978  4.035  1.103  2.931  0.000  0.001  266.03  172.58   14.64  157.88    0.00    0.07   0.792   0.600   0.554   0.253   0.200   0.180   0.137   0.115   0.100
 1982 100   187  23.80  15.60   1.70  4.389  1.202  3.186  4.338  1.202  3.136  0.000  0.001  270.42  176.92   15.84  161.01    0.00    0.07   0.801   0.639   0.603   0.279   0.221   0.200   0.152   0.128   0.112
 1982 101   188  22.60  22.80   4.40  4.711  1.375  3.335  4.658  1.375  3.282  0.000  0.001  275.13  181.58   17.21  164.29    0.00    0.07   0.785   0.664   0.642   0.302   0.241   0.219   0.166   0.140   0.122
 1982 102   189  24.00  29.40  11.10  5.700  1.843  3.856  2.624  1.843  0.780  0.000  0.001  280.83  184.20   19.06  165.08    0.00    0.07   0.636   0.095   0.034   0.008   0.004   0.002   0.001   0.001   0.000
 1982 103   190  23.90  23.90   8.30  5.136  1.886  3.248  2.581  1.886  0.694  0.000  0.001  285.97  186.78   20.94  165.77    0.00    0.07   0.554   0.091   0.033   0.007   0.004   0.002   0.001   0.001   0.000
 1982 104   191  23.80  30.60  11.70  5.659  2.284  3.373  2.898  2.284  0.613  0.000  0.001  291.63  189.68   23.23  166.38    0.00    0.07   0.479   0.087   0.032   0.007   0.004   0.002   0.001   0.001   0.000
 1982 105   192  17.00  30.60  17.80  4.198  1.867  2.329  2.400  1.867  0.532  0.000  0.001  295.83  192.08   25.10  166.91    0.00    0.07   0.404   0.082   0.031   0.007   0.004   0.002   0.001   0.001   0.000
 1982 106   193   8.00  26.70  10.00  1.767  0.852  0.914  1.332  0.852  0.480  0.000  0.001  297.59  193.41   25.95  167.39    0.00    0.07   0.357   0.078   0.030   0.007   0.004   0.002   0.001   0.001   0.000
 1982 107   194  25.90  17.20   2.80  4.696  2.409  2.284  2.853  2.409  0.444  0.000  0.001  302.29  196.26   28.36  167.84    0.00    0.07   0.323   0.075   0.030   0.007   0.004   0.002   0.001   0.001   0.000
 1982 108   195  24.30  23.30   1.10  4.715  2.511  2.201  2.918  2.511  0.406  0.000  0.001  307.01  199.18   30.87  168.24    0.00    0.07   0.292   0.070   0.029   0.007   0.004   0.002   0.001   0.001   0.000
 1982 109   196  23.60  20.00  10.60  4.755  2.642  2.111  3.138  2.642  0.495  0.000  0.001  311.76  202.32   33.51  168.74    0.00    0.07   0.389   0.064   0.028   0.007   0.004   0.002   0.001   0.001   0.000
 1982 110   197  24.50  13.30   0.00  4.047  2.364  1.681  4.017  2.364  1.652  0.000  0.001  315.81  206.34   35.87  170.39    0.00    0.07   0.404   0.299   0.308   0.155   0.124   0.122   0.093   0.078   0.068
 1982 111   198  22.50  16.10  -2.20  3.843  2.274  1.566  3.813  2.274  1.539  0.000  0.001  319.65  210.15   38.15  171.93    0.00    0.07   0.411   0.313   0.288   0.132   0.105   0.099   0.075   0.063   0.054
 1982 112   199  26.40  17.20   0.00  4.675  2.805  1.866  4.639  2.805  1.834  0.000  0.001  324.33  214.79   40.95  173.76    0.00    0.07   0.474   0.374   0.351   0.162   0.128   0.117   0.088   0.074   0.064
 1982 113   200  22.70  21.70   1.70  4.347  2.663  1.681  4.315  2.663  1.651  0.000  0.001  328.67  219.10   43.61  175.42    0.00    0.07   0.404   0.332   0.320   0.150   0.120   0.111   0.084   0.070   0.061
 1982 114   201  19.80  22.20  10.60  4.115  2.601  1.511  4.086  2.601  1.484  0.000  0.001  332.79  223.19   46.21  176.90    0.00    0.08   0.343   0.294   0.291   0.139   0.111   0.104   0.079   0.066   0.057
 1982 115   202  12.20  17.20   8.90  2.323  1.527  0.794  2.307  1.527  0.779  0.000  0.001  335.11  225.50   47.74  177.68    0.00    0.08   0.175   0.150   0.153   0.075   0.060   0.056   0.043   0.036   0.031
 1982 116   203  25.70  21.10   7.20  5.071  3.432  1.636  5.038  3.432  1.605  0.000  0.001  340.18  230.53   51.17  179.28    0.00    0.08   0.359   0.303   0.315   0.155   0.124   0.118   0.090   0.076   0.066
 1982 117   204   7.60  15.60   5.60  1.361  0.946  0.414  1.353  0.946  0.406  0.000  0.001  341.54  231.89   52.12  179.69    0.00    0.08   0.099   0.078   0.077   0.037   0.029   0.029   0.022   0.018   0.016
 1982 118   205   1.50  10.60   6.10  0.252  0.178  0.073  0.250  0.178  0.071  0.000  0.001  341.79  232.14   52.30  179.76    0.00    0.08   0.019   0.014   0.013   0.006   0.005   0.004   0.003   0.003   0.003
 1982 119   206   6.80  13.30   6.70  1.198  0.851  0.346  1.190  0.851  0.338  0.000  0.001  342.99  233.33   53.15  180.10    0.00    0.08   0.091   0.068   0.062   0.029   0.023   0.022   0.017   0.014   0.012
 1982 120   207  10.50  17.20  10.60  2.027  1.464  0.561  2.014  1.464  0.548  0.000  0.001  345.02  235.34   54.61  180.65    0.00    0.08   0.146   0.110   0.101   0.047   0.038   0.035   0.028   0.024   0.021
 1982 121   208  13.70  20.60  11.70  2.786  2.055  0.728  2.768  2.055  0.711  0.000  0.001  347.80  238.11   56.67  181.36    0.00    0.08   0.191   0.145   0.133   0.061   0.049   0.044   0.034   0.029   0.025
 1982 122   209  17.40  23.30  12.80  3.684  2.776  0.905  3.660  2.776  0.883  0.000  0.001  351.49  241.77   59.45  182.24    0.00    0.08   0.234   0.179   0.167   0.078   0.061   0.055   0.042   0.035   0.031
 1982 123   210  19.70  28.30  15.60  4.512  3.476  1.033  4.485  3.476  1.007  0.000  0.001  356.00  246.25   62.92  183.25    0.00    0.09   0.259   0.201   0.192   0.091   0.071   0.065   0.050   0.042   0.036
 1982 124   211  22.90  30.60  18.30  5.474  4.305  1.166  5.441  4.305  1.134  0.000  0.002  361.47  251.70   67.23  184.38    0.00    0.09   0.280   0.221   0.218   0.105   0.082   0.077   0.058   0.049   0.043
 1982 125   212   5.30  26.10  10.00  1.124  0.898  0.225  1.117  0.898  0.217  0.000  0.002  362.60  252.81   68.13  184.60    0.00    0.09   0.051   0.041   0.042   0.021   0.016   0.015   0.012   0.010   0.009
 1982 126   213  14.20  15.00   6.70  2.515  2.025  0.488  2.498  2.025  0.472  0.000  0.002  365.11  255.31   70.15  185.07    0.00    0.09   0.121   0.094   0.090   0.043   0.034   0.031   0.023   0.019   0.017
 1982 127   214  26.50  23.30   5.60  5.232  4.251  0.977  5.197  4.251  0.944  0.000  0.003  370.35  260.51   74.40  186.01    0.00    0.09   0.260   0.194   0.175   0.082   0.065   0.058   0.043   0.036   0.031
 1982 128   215  27.10  27.80  13.30  6.023  4.950  1.069  5.985  4.950  1.031  0.000  0.003  376.37  266.49   79.35  187.05    0.00    0.10   0.280   0.212   0.193   0.090   0.071   0.064   0.048   0.040   0.035
 1982 129   216  24.40  28.30  16.70  5.584  4.657  0.924  5.549  4.657  0.890  0.000  0.003  381.95  272.04   84.01  187.93    0.00    0.10   0.232   0.178   0.168   0.080   0.063   0.058   0.044   0.036   0.032
 1982 130   217  17.90  27.20  17.80  4.070  3.436  0.631  4.045  3.436  0.606  0.000  0.003  386.02  276.09   87.44  188.54    0.00    0.10   0.151   0.118   0.115   0.056   0.044   0.041   0.031   0.026   0.023
 1982 131   218  22.20  28.90  15.00  5.037  4.229  0.805  5.004  4.229  0.772  0.000  0.003  391.06  281.09   91.67  189.31    0.00    0.10   0.194   0.145   0.145   0.072   0.057   0.054   0.041   0.034   0.030
 1982 132   219  10.20  22.80  15.00  2.154  1.798  0.355  2.139  1.798  0.337  0.000  0.004  393.21  283.23   93.47  189.65    0.00    0.11   0.090   0.066   0.064   0.031   0.023   0.021   0.016   0.014   0.012
 1982 133   220  10.80  23.30  16.70  2.335  1.939  0.394  2.318  1.939  0.375  0.000  0.004  395.55  285.55   95.41  190.03    0.00    0.11   0.103   0.077   0.071   0.033   0.025   0.022   0.017   0.014   0.012
 1982 134   221  11.60  22.20  13.30  2.405  1.987  0.417  2.388  1.987  0.397  0.000  0.004  397.95  287.94   97.40  190.42    0.00    0.12   0.109   0.081   0.074   0.035   0.027   0.024   0.018   0.015   0.013
 1982 135   222  26.60  24.40  11.10  5.569  4.578  0.987  5.528  4.578  0.946  0.000  0.004  403.52  293.46  101.97  191.37    0.00    0.12   0.260   0.194   0.178   0.083   0.065   0.057   0.043   0.036   0.031
 1982 136   223  11.40  23.30  15.60  2.445  2.000  0.443  2.427  2.000  0.423  0.000  0.004  405.97  295.89  103.97  191.79    0.00    0.12   0.117   0.086   0.079   0.037   0.029   0.026   0.019   0.016   0.014
 1982 137   224  16.50  23.90  15.00  3.551  2.889  0.660  3.524  2.889  0.631  0.000  0.004  409.52  299.42  106.86  192.42    0.00    0.13   0.178   0.129   0.116   0.054   0.043   0.038   0.029   0.024   0.021
 1982 138   225  25.10  27.80  12.80  5.565  4.502  1.060  5.522  4.502  1.016  0.000  0.004  415.08  304.94  111.37  193.44    0.00    0.13   0.287   0.209   0.187   0.086   0.068   0.061   0.046   0.039   0.034
 1982 139   226  23.50  30.00  17.20  5.528  4.445  1.080  5.484  4.445  1.036  0.000  0.004  420.61  310.42  115.81  194.47    0.00    0.14   0.286   0.208   0.191   0.090   0.071   0.064   0.049   0.041   0.035
 1982 140   227  14.10  26.10  16.10  3.144  2.510  0.632  3.119  2.510  0.605  0.000  0.004  423.76  313.54  118.32  195.08    0.00    0.14   0.161   0.119   0.112   0.054   0.042   0.039   0.030   0.025   0.022
 1982 141   228  20.90  23.30  12.80  4.387  3.482  0.902  4.350  3.482  0.865  0.000  0.004  428.14  317.89  121.80  195.94    0.00    0.14   0.233   0.174   0.162   0.077   0.061   0.054   0.041   0.034   0.029
 1982 142   229  16.90  20.60  11.70  3.404  2.689  0.713  3.375  2.689  0.683  0.000  0.004  431.55  321.27  124.49  196.63    0.00    0.15   0.186   0.139   0.128   0.060   0.048   0.042   0.031   0.026   0.023
 1982 143   230  23.10  24.40  11.70  4.883  3.839  1.040  4.841  3.839  0.997  0.000  0.004  436.43  326.11  128.33  197.62    0.00    0.15   0.268   0.202   0.189   0.087   0.069   0.062   0.046   0.039   0.034
 1982 144   231   9.20  21.70  15.60  1.941  1.519  0.421  1.924  1.519  0.402  0.000  0.004  438.37  328.03  129.85  198.03    0.00    0.16   0.104   0.080   0.077   0.036   0.029   0.026   0.019   0.016   0.014
 1982 145   232  13.70  23.30  16.70  2.975  2.316  0.658  2.949  2.316  0.630  0.000  0.004  441.35  330.98  132.16  198.66    0.00    0.16   0.169   0.128   0.120   0.056   0.043   0.039   0.029   0.024   0.021
 1982 146   233  25.30  21.10  11.70  5.143  3.979  1.160  5.096  3.979  1.112  0.000  0.004  446.49  336.07  136.14  199.77    0.00    0.16   0.303   0.227   0.208   0.097   0.075   0.070   0.053   0.043   0.036
 1982 147   234  28.10  26.70  10.00  6.042  4.653  1.385  5.986  4.653  1.329  0.000  0.004  452.53  342.06  140.80  201.10    0.00    0.17   0.357   0.269   0.245   0.115   0.090   0.085   0.066   0.056   0.046
 1982 148   235  15.50  28.90  17.80  3.636  2.786  0.849  3.602  2.786  0.813  0.000  0.004  456.17  345.66  143.58  201.91    0.00    0.17   0.220   0.166   0.152   0.070   0.055   0.051   0.039   0.033   0.028
 1982 149   236  22.90  26.70  16.10  5.170  3.933  1.234  5.121  3.933  1.184  0.000  0.004  461.34  350.78  147.52  203.09    0.00    0.18   0.317   0.239   0.220   0.103   0.081   0.078   0.058   0.048   0.041
 1982 150   237  17.60  26.10  15.00  3.919  2.961  0.955  3.881  2.961  0.915  0.000  0.004  465.26  354.67  150.48  204.01    0.00    0.18   0.246   0.183   0.168   0.079   0.063   0.059   0.046   0.038   0.032
 1982 151   238  14.30  22.20  13.30  2.994  2.256  0.736  2.964  2.256  0.705  0.000  0.004  468.25  357.63  152.73  204.71    0.00    0.18   0.190   0.142   0.131   0.061   0.048   0.044   0.034   0.029   0.025
 1982 152   239  28.40  20.60   5.00  5.418  4.072  1.342  5.364  4.072  1.288  0.000  0.004  473.67  362.99  156.80  206.00    0.00    0.19   0.350   0.265   0.243   0.112   0.087   0.078   0.060   0.050   0.044
 1982 153   240  10.80  18.30  12.20  2.128  1.596  0.530  2.107  1.596  0.506  0.000  0.004  475.80  365.10  158.40  206.51    0.00    0.19   0.136   0.102   0.095   0.045   0.035   0.032   0.024   0.020   0.018
 1982 154   241   7.50  17.80  12.20  1.469  1.100  0.368  1.454  1.100  0.351  0.000  0.004  477.27  366.55  159.50  206.86    0.00    0.19   0.098   0.069   0.065   0.031   0.024   0.022   0.016   0.014   0.012
 1982 155   242  14.30  21.10  12.80  2.943  2.199  0.742  2.913  2.199  0.711  0.000  0.004  480.21  369.47  161.70  207.57    0.00    0.20   0.205   0.142   0.128   0.061   0.047   0.044   0.033   0.028   0.024
 1982 156   243  21.30  23.30  12.20  4.489  3.346  1.140  4.443  3.346  1.093  0.000  0.004  484.70  373.91  165.04  208.66    0.00    0.20   0.309   0.222   0.195   0.094   0.073   0.068   0.051   0.043   0.037
 1982 157   244  18.70  31.10  20.00  4.577  3.404  1.171  4.531  3.404  1.123  0.000  0.004  489.27  378.44  168.45  209.79    0.00    0.21   0.307   0.226   0.201   0.099   0.077   0.072   0.054   0.047   0.040
 1982 158   245  25.50  28.30  12.20  5.698  4.222  1.472  5.285  4.222  1.059  0.000  0.004  494.97  383.73  172.67  210.85    0.00    0.21   0.898   0.112   0.035   0.007   0.004   0.002   0.001   0.001   0.000
 1982 159   246  20.50  32.20  19.40  5.059  3.745  1.311  5.007  3.745  1.258  0.000  0.004  500.03  388.73  176.42  212.10    0.00    0.21   0.340   0.270   0.238   0.103   0.079   0.077   0.058   0.050   0.043
 1982 160   247  24.80  28.30  17.20  5.771  4.197  1.570  5.709  4.197  1.508  0.000  0.004  505.80  394.44  180.61  213.61    0.00    0.22   0.408   0.317   0.289   0.130   0.097   0.090   0.068   0.058   0.050
 1982 161   248  29.10  24.40   8.30  6.054  4.217  1.833  5.982  4.217  1.761  0.000  0.004  511.86  400.42  184.83  215.37    0.00    0.22   0.478   0.364   0.336   0.155   0.118   0.105   0.079   0.068   0.058
 1982 162   249  11.90  21.70  14.40  2.531  1.633  0.897  2.496  1.633  0.860  0.000  0.004  514.39  402.92  186.46  216.23    0.00    0.23   0.222   0.174   0.166   0.078   0.060   0.054   0.041   0.035   0.030
 1982 163   250  22.90  25.60  13.90  5.134  2.923  2.209  3.855  2.923  0.929  0.000  0.004  519.52  406.78  189.39  217.16    0.00    0.23   0.775   0.103   0.035   0.008   0.004   0.002   0.001   0.001   0.000
 1982 164   251  16.70  26.70  15.00  3.944  1.188  2.755  2.008  1.188  0.817  0.000  0.003  523.47  408.78  190.57  217.98    0.00    0.23   0.670   0.097   0.034   0.008   0.004   0.002   0.001   0.001   0.000
 1982 165   252  13.80  30.00  17.80  3.571  0.000  3.571  0.764  0.000  0.761  0.000  0.003  527.04  409.55  190.57  218.74    0.00    0.24   0.617   0.095   0.034   0.008   0.004   0.002   0.001   0.001   0.000
 1982 166   253  21.60  27.80  17.20  5.424  0.000  5.424  4.916  0.000  4.912  0.000  0.004  532.46  414.46  190.57  223.65    0.00    0.24   1.223   1.016   0.967   0.458   0.342   0.310   0.229   0.197   0.170
 1982 167   254  29.70  24.40  12.80  7.068  0.000  7.068  5.224  0.000  5.220  0.000  0.004  539.53  419.69  190.57  228.87    0.00    0.24   1.401   1.080   0.998   0.468   0.359   0.317   0.233   0.196   0.168
 1982 168   255  21.70  28.90  13.30  5.434  0.000  5.434  4.936  0.000  4.932  0.000  0.004  544.96  424.62  190.57  233.80    0.00    0.25   1.227   1.024   0.969   0.446   0.351   0.315   0.236   0.194   0.168
 1982 169   256  17.60  24.40  17.80  4.299  0.000  4.299  4.138  0.000  4.135  0.000  0.004  549.26  428.76  190.57  237.94    0.00    0.25   0.977   0.852   0.825   0.383   0.303   0.273   0.205   0.169   0.147
 1982 170   257  26.70  25.60  12.80  6.350  0.000  6.350  0.827  0.000  0.823  0.000  0.004  555.61  429.59  190.57  238.76    0.00    0.26   0.672   0.100   0.035   0.008   0.004   0.002   0.001   0.001   0.000
 1982 171   258  27.20  29.40  16.10  6.911  0.000  6.911  0.767  0.000  0.763  0.000  0.004  562.52  430.36  190.57  239.52    0.00    0.26   0.613   0.100   0.035   0.008   0.004   0.002   0.001   0.001   0.000
 1982 172   259  21.70  30.00  14.40  5.460  0.000  5.460  0.711  0.000  0.708  0.000  0.004  567.98  431.07  190.57  240.23    0.00    0.26   0.558   0.099   0.035   0.008   0.004   0.002   0.001   0.001   0.000
 1982 173   260  28.00  27.80  13.90  6.819  0.000  6.819  4.854  0.000  4.850  0.000  0.003  574.80  435.92  190.57  245.08    0.00    0.27   1.166   1.035   0.962   0.441   0.345   0.311   0.232   0.192   0.167
 1982 174   261  16.50  26.70  16.70  4.165  0.000  4.165  4.009  0.000  4.005  0.000  0.004  578.97  439.93  190.57  249.09    0.00    0.27   1.099   0.840   0.760   0.345   0.269   0.241   0.178   0.147   0.128
