$GROWTH ASPECTS OUTPUT FILE

*DSSAT Cropping System Model Ver. 4.5.1.023 -Stub         OCT 13, 2014; 10:45:28
                                                                                
*RUN   1        : DRYLAND  - 0 KG N/HA      CSCER045 KSAS8101    1              
 MODEL          : CSCER045 - Wheat                                              
 EXPERIMENT     : KSAS8101 WH                                                   
 DATA PATH      :                                                               
 TREATMENT  1   : DRYLAND  - 0 KG N/HA      CSCER045                            
  
@YEAR DOY   DAS   DAP TMEAN TKILL  GSTD  L#SD PARID PARUD  AWAD  LAID  SAID  CAID  TWAD SDWAD  RWAD  CWAD  LWAD  SWAD  HWAD  HIAD CHWAD  EWAD RSWAD SNWPD SNW0D SNW1D  RS%D  H#AD  HWUD  T#AD  SLAD  RDPD  PTFD  SWXD WAVRD WUPRD  WFTD  WFPD  WFGD  NFTD  NFPD  NFGD NUPRD  TFPD  TFGD VRNFD DYLFD
 1981 289    10     0  12.8  -6.0  0.00  0.00  0.00  0.00   0.0  0.00 0.000  0.00    46    46     0     0     0     0     0  0.00     0     0     0     0     0     0   0.0     0     0   162   -99  0.05  0.00   7.4  99.9  1.00  0.00  0.00  0.00  0.00  0.00  0.00   0.0  0.00  0.00  1.00  0.00
 1981 290    11     1  16.1  -6.0  5.58  0.00  0.00  0.00   0.0  0.00 0.000  0.00    46    46     0     0     0     0     0  0.00     0     0     0     0     0     0   0.0     0     0   162   -99  0.05  0.00   8.7  99.9  1.00  0.00  0.00  0.00  0.00  0.00  0.00   0.0  0.00  0.00  1.00  0.00
 1981 291    12     2   9.4  -6.0  6.54  0.00  0.00  0.00   0.0  0.00 0.000  0.00    46    45     1     0     0     0     0  0.00     0     0     0     0     0     0   0.0     0     0   162   -99  0.07  0.00   9.9  99.9  1.00  0.00  0.00  0.00  0.00  0.00  0.00   0.0  0.00  0.06  0.98  0.00
 1981 292    13     3  12.2  -6.0  7.81  0.00  0.00  0.00   0.0  0.00 0.000  0.00    46    44     2     0     0     0     0  0.00     0     0     0     0     0 .0058   0.0     0     0   162   -99  0.09  0.00  11.8  99.9  1.00  0.00  0.00  0.00  0.00  0.00  0.00   2.0  0.00  0.00  0.98  0.00
 1981 293    14     4  17.5  -6.0  9.69  0.00  0.00  0.00   0.0  0.00 0.000  0.00    46    43     3     0     0     0     0  0.00     0     0     0     0     0 .0190   0.0     0     0   162   -99  0.11  0.00  14.9  99.9  1.00  0.00  0.00  0.00  0.00  0.00  0.00   2.0  0.00  0.00  0.98  0.00
 1981 294    15     5  11.7  -6.0 10.00  0.00  0.00  0.00   0.0  0.00 0.000  0.00    46    42     4     0     0     0     0  0.00     0     0     0     0     0 .0428   0.0     0     0   162   -99  0.13  0.00  16.8  99.9  1.00  0.00  0.00  0.00  0.00  0.00  0.00   2.0  0.00  0.00  0.97  0.00
 1981 295    16     6   6.2  -7.1 10.08  0.08  0.00  0.00   0.0  0.00 0.000  0.00    46    41     4     1     0     0     0  0.00     0     0     0     0     0 .0736   0.0     0     0   162   400  0.14  0.75  17.4  99.9  1.00  0.00  0.00  0.00  0.00  0.00  0.00   2.0  0.00  0.38  0.95  0.50
 1981 296    17     7   1.9  -8.5 10.11  0.11  0.00  1.06   0.1  0.00 0.000  0.00    46    41     4     1     0     0     0  0.00     0     0     0     0     0 0.108  11.1     0     0   162   397  0.14  0.75  17.1  99.9 15.00  0.00  0.00  0.00  0.00  0.00  0.00   2.0  0.61  0.81  0.92  0.50
 1981 297    18     8   6.1  -9.5 10.19  0.19  0.00  2.70   0.1  0.00 0.000  0.00    46    40     5     1     1     1     0  0.00     0     0     0     0     0 0.143  11.2     0     0   162   397  0.15  0.75  17.8  99.9 15.00  0.00  0.00  0.00  0.01  0.01  0.01   2.0  0.00  0.39  0.90  0.51
 1981 298    19     9   8.4 -10.0 10.30  0.30  0.01  2.70   0.2  0.01 0.001  0.01    46    38     5     3     2     1     0  0.00     0     0     0     0     0 0.182  12.1     0     0   162   397  0.16  0.75  21.5  99.9 15.00  0.00  0.00  0.00  0.01  0.01  0.01   2.0  0.00  0.16  0.88  0.51
 1981 299    20    10   7.8 -10.5 10.40  0.40  0.01  2.70   0.9  0.01 0.001  0.01    47    37     6     4     2     2     0  0.00     0     0     1     0     0 0.224  23.6     0     0   162   397  0.17  0.75  22.8  99.9 14.83  0.00  0.00  0.00  0.01  0.01  0.01   2.0  0.00  0.22  0.86  0.52
 1981 300    21    11  13.7 -10.4 10.58  0.58  0.01  2.70   1.3  0.01 0.001  0.02    48    34     7     8     4     4     0  0.00     0     0     2     0     0 0.271  27.0     0     0   162   397  0.19  0.75  24.4  99.9  9.83  0.00  0.00  0.00  0.01  0.01  0.01   2.0  0.00  0.00  0.86  0.52
 1981 301    22    12  16.2 -10.2 10.79  0.79  0.02  2.71   2.0  0.02 0.002  0.02    50    31     8    12     5     6     0  0.00     0     0     4     0     0 0.324  30.6     0     0   162   397  0.21  0.75  26.4  99.9  7.11  0.00  0.00  0.00  0.00  0.00  0.00   2.0  0.00  0.00  0.86  0.53
 1981 302    23    13  17.5 -10.0 11.02  1.02  0.02  2.72   3.0  0.03 0.003  0.03    53    27     9    17     7     9     0  0.00     0     0     6     0     0 0.384  34.8     0     0   162   396  0.23  0.75  28.7  99.9  5.31  0.00  0.00  0.00  0.00  0.00  0.00   1.7  0.00  0.00  0.86  0.53
 1981 303    24    14  16.1  -9.9 11.23  1.23  0.03  2.72   1.0  0.04 0.003  0.04    53    23    10    20     9    11     0  0.00     0     0     7     0     0 0.454  32.0     0     0   162   394  0.25  0.75  30.9  99.9 15.00  0.00  0.00  0.00  0.00  0.00  0.00   1.5  0.00  0.00  0.86  0.53
 1981 304    25    15  13.9  -9.8 11.42  1.42  0.04  2.72   0.8  0.04 0.004  0.05    54    20    10    24    11    13     0  0.00     0     0     7     0     0 0.531  30.1     0     0   162   393  0.27  0.75  33.4  99.9 15.00  0.00  0.00  0.00  0.00  0.00  0.00   1.9  0.00  0.00  0.86  0.54
 1981 305    26    16  12.2  -9.7 11.58  1.58  0.04  2.72   1.4  0.05 0.004  0.05    55    17    11    27    13    14     0  0.00     0     0     8     0     0 0.614  30.4     0     0   162   392  0.29  0.75  51.4  99.9 15.00  0.00  0.00  0.00  0.00  0.00  0.00   2.0  0.00  0.00  0.85  0.54
 1981 306    27    17  10.2  -9.7 11.71  1.71  0.05  2.72   1.6  0.05 0.005  0.06    57    15    12    30    14    16     0  0.00     0     0     9     0     0 0.703  31.2     0     0   162   392  0.30  0.75  53.0  99.9 15.00  0.00  0.00  0.00  0.00  0.00  0.00   2.0  0.00  0.00  0.83  0.55
 1981 307    28    18  11.4  -9.6 11.86  1.86  0.05  2.72   3.8  0.06 0.005  0.07    60    13    12    35    15    19     0  0.00     0     0    12     0     0 0.797  33.8     0     0   162   391  0.31  0.75  52.2  99.9  7.31  0.00  0.00  0.00  0.00  0.00  0.00   2.0  0.00  0.00  0.82  0.55
 1981 308    29    19  10.2  -9.6 12.00  2.00  0.05  2.72   2.4  0.07 0.006  0.07    62    12    13    37    17    21     0  0.00     0     0    13     0     0 0.895  33.6     0     0   162   391  0.32  0.75  56.8  99.9 12.62  0.00  0.00  0.00  0.00  0.00  0.00   2.0  0.00  0.00  0.81  0.56
 1981 309    30    20  10.6  -9.5 12.11  2.11  0.06  2.72   9.0  0.07 0.006  0.08    70    11    14    45    18    27     0  0.00     0     0    18     0     0     1  40.6     0     0   162   390  0.33  0.75  55.7  99.9  3.44  0.00  0.00  0.00  0.00  0.00  0.00   2.0  0.00  0.00  0.80  0.56
 1981 310    31    21   6.7 -10.3 12.18  2.18  0.06  2.72  10.1  0.07 0.006  0.08    79    11    15    53    19    34     0  0.00     0     0    25     0     0 1.108  48.0     0     0   162   390  0.33  0.75  52.3  99.9  3.65  0.00  0.00  0.00  0.00  0.00  0.00   2.0  0.00  0.33  0.78  0.56
 1981 311    32    22   9.7 -10.3 12.28  2.28  0.06  2.72   7.5  0.08 0.007  0.08    86    10    16    59    20    39     0  0.00     0     0    30     0     0 1.230  50.5     0     0   162   389  0.34  0.75  51.9  99.9  5.03  0.00  0.00  0.00  0.00  0.00  0.00   2.0  0.00  0.03  0.76  0.57
 1981 312    33    23  10.9 -10.2 12.40  2.40  0.07  2.72   0.9  0.08 0.007  0.09    86    10    17    60    20    40     0  0.00     0     0    30     0     0 1.360  49.6     0     0   162   388  0.35  0.75  61.2  99.9 15.00  0.00  0.00  0.00  0.00  0.00  0.00   2.0  0.00  0.00  0.75  0.57
 1981 313    34    24   2.5 -11.6 12.42  2.42  0.07  1.36   5.6  0.08 0.007  0.09    91    10    17    64    20    44     0  0.00     0     0    34     0     0 1.493  52.8     0     0   162   388  0.35  0.75  60.1  99.9  4.52  0.00  0.00  0.00  0.00  0.00  0.00   2.0  0.50  0.75  0.73  0.57
 1981 314    35    25   5.6 -12.8 12.48  2.48  0.07  2.72  10.6  0.08 0.007  0.09   101    10    19    72    21    51     0  0.00     0     0    41     0     0 1.631  57.3     0     0   162   388  0.36  0.75  55.8  99.9  4.45  0.00  0.00  0.00  0.00  0.00  0.00   2.0  0.00  0.44  0.71  0.58
 1981 315    36    26   7.5 -13.4 12.56  2.56  0.07  2.72  10.3  0.08 0.007  0.09   110    10    20    80    22    59     0  0.00     0     0    48     0     0 1.781  60.2     0     0   162   387  0.36  0.75  54.5  99.9  4.74  0.00  0.00  0.00  0.00  0.00  0.00   2.0  0.00  0.25  0.69  0.58
 1981 316    37    27  10.9 -13.2 12.67  2.67  0.07  2.72  10.3  0.09 0.008  0.10   119     9    21    88    23    65     0  0.00     0     0    54     0     0 1.941  61.6     0     0   162   387  0.37  0.75  53.8  99.9  4.67  0.00  0.00  0.00  0.00  0.00  0.00   2.0  0.00  0.00  0.67  0.59
 1981 317    38    28  10.6 -13.1 12.78  2.78  0.08  2.72  10.7  0.09 0.008  0.10   128     9    23    96    24    72     0  0.00     0     0    60     0     0 2.113  62.9     0     0   162   386  0.38  0.75  53.2  99.9  4.86  0.00  0.00  0.00  0.00  0.00  0.00   2.0  0.00  0.00  0.66  0.59
 1981 318    39    29  13.0 -13.0 12.92  2.92  0.08  2.72   8.2  0.10 0.009  0.11   136     9    24   102    26    77     0  0.00     0     0    64     0     0 2.295  62.9     0     0   162   385  0.39  0.75  53.3  99.9  6.54  0.00  0.00  0.00  0.00  0.00  0.00   2.0  0.00  0.00  0.66  0.59
 1981 319    40    30  15.0 -12.9 13.08  3.08  0.09  2.72   9.3  0.11 0.009  0.12   144     9    25   109    28    82     0  0.00     0     0    69     0     0 2.486  62.7     0     0   162   384  0.41  0.75  53.3  99.9  5.75  0.00  0.00  0.00  0.00  0.00  0.00   2.0  0.00  0.00  0.66  0.60
 1981 320    41    31  17.5 -12.7 13.26  3.26  0.09  2.72  12.8  0.12 0.010  0.13   155     9    27   119    30    89     0  0.00     0     0    75     0     0 2.687  62.7     0     0   162   383  0.42  0.75  53.9  99.9  4.22  0.00  0.00  0.00  0.00  0.00  0.00   1.7  0.00  0.00  0.66  0.60
 1981 321    42    32  12.8 -12.5 13.40  3.40  0.10  2.72  13.2  0.12 0.011  0.13   167     9    28   129    32    97     0  0.00     0     0    82     0     0 2.901  63.5     0     0   162   381  0.43  0.75  54.1  99.9  4.70  0.00  0.00  0.00  0.00  0.00  0.00   2.0  0.00  0.00  0.65  0.60
 1981 322    43    33  14.1 -12.4 13.55  3.55  0.10  2.72   9.1  0.13 0.012  0.14   175     9    30   136    34   102     0  0.00     0     0    86     0     0 3.129  63.2     0     0   162   380  0.44  0.75  54.6  99.9  7.24  0.00  0.00  0.00  0.00  0.00  0.00   2.0  0.00  0.00  0.65  0.61
 1981 323    44    34   4.1 -13.8 13.59  3.59  0.10  2.26   2.7  0.13 0.012  0.14   177     9    30   138    34   104     0  0.00     0     0    88     0     0 3.365  63.4     0     0   162   380  0.45  0.76  54.6  99.9 15.00  0.00  0.00  0.00  0.00  0.00  0.00   2.0  0.17  0.59  0.63  0.61
 1981 324    45    35   0.0 -15.2 13.59  3.59  0.10  0.00   0.0  0.13 0.012  0.14   177     9    30   138    34   104     0  0.00     0     0    88     0     0 3.603  63.4     0     0   162   380  0.45  0.76  53.9  99.9 10.72  0.00  0.00  0.00  0.00  0.00  0.00   2.0  1.00  1.00  0.60  0.61
 1981 325    46    36   2.5 -16.6 13.62  3.62  0.10  1.36   7.2  0.13 0.012  0.14   183     9    30   143    34   109     0  0.00     0     0    93     0     0 3.839  64.7     0     0   162   380  0.45  0.76  53.5  99.9  5.70  0.00  0.00  0.00  0.00  0.00  0.00   2.0  0.50  0.75  0.58  0.62
 1981 326    47    37   7.0 -17.4 13.69  3.69  0.11  2.72  10.0  0.13 0.012  0.14   192     9    32   151    35   116     0  0.00     0     0    99     0     0 4.082  65.8     0     0   162   379  0.45  0.76  53.5  99.9  6.98  0.00  0.00  0.00  0.00  0.00  0.00   2.0  0.00  0.30  0.56  0.62
 1981 327    48    38  10.6 -17.3 13.80  3.80  0.11  2.72  13.2  0.14 0.012  0.15   203     9    33   161    37   124     0  0.00     0     0   107     0     0 4.334  66.6     0     0   162   379  0.46  0.76  53.8  99.9  5.06  0.00  0.00  0.00  0.00  0.00  0.00   2.0  0.00  0.00  0.55  0.62
 1981 328    49    39   6.4 -18.3 13.87  3.87  0.11  2.72  12.1  0.14 0.013  0.15   214     9    35   170    37   133     0  0.00     0     0   115     0     0 4.600  67.9     0     0   162   378  0.47  0.76  53.8  99.9  6.39  0.00  0.00  0.00  0.00  0.00  0.00   2.0  0.00  0.36  0.52  0.62
 1981 329    50    40  12.2 -18.1 14.00  4.00  0.12  2.72  13.0  0.15 0.013  0.16   226     9    36   180    39   141     0  0.00     0     0   123     0     0 4.878  68.2     0     0   162   377  0.48  0.76  54.3  99.9  5.31  0.00  0.00  0.00  0.00  0.00  0.00   2.0  0.00  0.00  0.52  0.63
 1981 330    51    41   6.7 -19.1 14.07  4.07  0.12  2.72   9.9  0.15 0.013  0.16   234     9    38   187    40   148     0  0.00     0     0   129     0     0 5.169  68.9     0     0   162   377  0.48  0.76  54.4  99.9  8.59  0.00  0.00  0.00  0.00  0.00  0.00   2.0  0.00  0.33  0.49  0.63
 1981 331    52    42  -0.8 -20.0 14.07  4.07  0.12  0.00   0.0  0.15 0.013  0.16   234     9    37   187    40   148     0  0.00     0     0   129     0     0 5.469  68.9     0     0   162   376  0.48  0.76  54.1  99.9 11.75  0.00  0.00  0.00  0.00  0.00  0.00   2.0  1.00  1.00  0.48  0.63
 1981 332    53    43   2.5 -20.0 14.09  4.09  0.12  1.36   4.4  0.15 0.013  0.16   237     9    38   191    40   151     0  0.00     0     0   132     0 0.144 5.767  69.5     0     0   162   376  0.48  0.76  54.1  99.9 11.19  0.00  0.00  0.00  0.00  0.00  0.00   2.0  0.50  0.75  0.45  0.64
 1981 333    54    44   3.0 -20.0 14.13  4.13  0.12  1.66   4.5  0.15 0.013  0.16   241     9    38   194    40   154     0  0.00     0     0   136     0 0.319 6.068  70.1     0     0   162   376  0.49  0.76  54.2  99.9 12.86  0.00  0.00  0.00  0.00  0.00  0.00   2.0  0.39  0.70  0.43  0.64
 1981 334    55    45   5.9 -20.0 14.19  4.19  0.12  2.72   1.1  0.15 0.013  0.16   241     9    38   194    40   155     0  0.00     0     0   136     0 0.655 6.371  70.1     0     0   162   376  0.49  0.76  73.4  99.9 15.00  0.00  0.00  0.00  0.00  0.00  0.00   2.0  0.00  0.41  0.41  0.64
 1981 335    56    46   2.2 -20.0 14.21  4.21  0.12  1.20   2.0  0.15 0.013  0.16   243     9    38   196    40   156     0  0.00     0     0   138     0 0.781 6.674  70.3     0     0   162   376  0.49  0.76  79.5  99.9 15.00  0.00  0.00  0.00  0.00  0.00  0.00   2.0  0.56  0.78  0.39  0.64
 1981 336    57    47   3.6 -20.0 14.25  4.25  0.12  1.96   9.3  0.15 0.013  0.16   251     9    39   203    40   163     0  0.00     0     0   145     0 0.988 6.976  71.4     0     0   162   375  0.50  0.76  73.4  99.9  8.61  0.00  0.00  0.00  0.00  0.00  0.00   2.0  0.28  0.64  0.36  0.64
 1981 337    58    48   4.5 -20.0 14.30  4.30  0.12  2.42  14.1  0.15 0.013  0.16   263     9    41   213    40   173     0  0.00     0     0   155     0 1.244 7.287  72.8     0     0   162   375  0.50  0.76  71.0  99.9  7.07  0.00  0.00  0.00  0.00  0.00  0.00   2.0  0.11  0.55  0.34  0.65
 1981 338    59    49   3.9 -20.0 14.34  4.34  0.12  2.12  12.4  0.15 0.013  0.16   273     9    42   222    39   183     0  0.00     0     0   164     0 1.468 7.612  74.0     0     0   162   375  0.50  0.76  70.1  99.9  7.51  0.00  0.00  0.00  0.00  0.00  0.00   2.0  0.22  0.61  0.32  0.65
 1981 339    60    50   3.9 -20.0 14.38  4.38  0.12  2.12   4.4  0.15 0.013  0.16   277     9    42   225    39   186     0  0.00     0     0   167     0 1.693 7.948  74.3     0     0   162   374  0.51  0.76  70.0  99.9 15.00  0.00  0.00  0.00  0.00  0.00  0.00   2.0  0.22  0.61  0.30  0.65
 1981 340    61    51   8.9 -20.0 14.47  4.47  0.12  2.72  11.1  0.15 0.014  0.16   286     9    44   233    40   193     0  0.00     0     0   174     0 2.205 8.287  74.8     0     0   162   374  0.51  0.76  69.7  99.9  9.75  0.00  0.00  0.00  0.00  0.00  0.00   2.0  0.00  0.11  0.28  0.65
 1981 341    62    52  11.7 -20.0 14.59  4.59  0.12  2.72  14.6  0.15 0.014  0.17   298     9    45   244    41   202     0  0.00     0     0   183     0 2.879 8.637  75.3     0     0   162   372  0.52  0.76  69.4  99.9  7.15  0.00  0.00  0.00  0.00  0.00  0.00   2.0  0.00  0.00  0.27  0.65
 1981 342    63    53   3.7 -20.0 14.63  4.63  0.12  1.99   9.6  0.15 0.014  0.17   306     9    46   251    41   209     0  0.00     0     0   190     0 3.090 9.000  76.0     0     0   167   372  0.53  0.76  68.7  99.9 10.24  0.00  0.00  0.00  0.00  0.00  0.00   2.0  0.27  0.63  0.25  0.66
 1981 343    64    54   2.2 -20.0 14.66  4.66  0.12  1.22   6.4  0.15 0.014  0.17   312     9    47   255    41   214     0  0.00     0     0   195     0 3.220 9.372  76.5     0     0   170   372  0.53  0.76  67.8  99.9 10.23  0.00  0.00  0.00  0.00  0.00  0.00   2.0  0.55  0.77  0.23  0.66
 1981 344    65    55  -0.3 -20.0 14.66  4.66  0.12  0.00   0.0  0.15 0.014  0.17   311     9    47   255    41   214     0  0.00     0     0   195     0 3.220 9.748  76.5     0     0   170   371  0.53  0.76  67.7  99.9 15.00  0.00  0.00  0.00  0.00  0.00  0.00   2.0  1.00  1.00  0.21  0.66
 1981 345    66    56   2.5 -20.0 14.68  4.68  0.12  1.36   1.5  0.15 0.014  0.17   312     9    46   256    41   215     0  0.00     0     0   196     0 3.365 10.12  76.6     0     0   173   371  0.53  0.76  67.8  99.9 15.00  0.00  0.00  0.00  0.00  0.00  0.00   2.0  0.50  0.75  0.18  0.66
 1981 346    67    57   2.8 -20.0 14.71  4.71  0.12  1.52   1.5  0.15 0.014  0.17   313     9    46   257    41   216     0  0.00     0     0   197     0 3.526 10.49  76.8     0     0   177   371  0.53  0.76  67.9  99.9 15.00  0.00  0.00  0.00  0.00  0.00  0.00   2.0  0.44  0.72  0.16  0.66
 1981 347    68    58   2.5 -20.0 14.74  4.74  0.12  1.36   1.1  0.15 0.014  0.17   313     9    46   258    41   217     0  0.00     0     0   198     0 3.671 10.86  76.9     0     0   181   371  0.53  0.76  68.0  99.9 15.00  0.00  0.00  0.00  0.00  0.00  0.00   2.0  0.50  0.75  0.14  0.66
 1981 348    69    59   0.5 -20.0 14.74  4.74  0.12  0.30   1.5  0.15 0.014  0.17   314     9    46   259    41   218     0  0.00     0     0   199     0 3.703 11.23  77.0     0     0   181   371  0.54  0.76  67.9  99.9 15.00  0.00  0.00  0.00  0.00  0.00  0.00   2.0  0.89  0.94  0.12  0.66
 1981 349    70    60   0.0 -20.0 14.74  4.74  0.12  0.00   0.0  0.15 0.014  0.17   314     9    46   259    41   218     0  0.00     0     0   199     0 3.703 11.60  77.0     0     0   181   371  0.54  0.76  67.6  99.9 15.00  0.00  0.00  0.00  0.00  0.00  0.00   2.0  1.00  1.00  0.10  0.66
 1981 350    71    61  -4.7 -20.0 14.74  4.74  0.12  0.00   0.0  0.15 0.014  0.17   314     9    45   259    41   218     0  0.00     0     0   199     0 3.703 11.97  77.0     0     0   181   371  0.54  0.76  67.6  99.9 15.00  0.00  0.00  0.00  0.00  0.00  0.00   2.0  1.00  1.00  0.09  0.66
 1981 351    72    62 -12.5 -20.0 14.74  4.74  0.06  0.00   0.0  0.08 0.007  0.08   184     9    45   130    20   109     0  0.00     0     0   100     0 33.13 12.33  76.8     0     0   181   371  0.54  0.76  67.5  99.9 15.00  0.00  0.00  0.00  0.00  0.00  0.00   2.0  1.00  1.00  0.07  0.67
 1981 352    73    63 -13.6 -20.0 14.74  4.74  0.02  0.00   0.0  0.02 0.004  0.02    97     9    45    43    10    33     0  0.00     0     0    28     0 47.84 12.69  64.3     0     0   181   208  0.54  0.76  67.5  99.9 15.00  0.00  0.00  0.00  0.00  0.00  0.00   2.0  1.00  1.00  0.05  0.67
 1981 353    74    64 -11.4 -20.0 14.74  4.74  0.01  0.00   0.0  0.02 0.003  0.02    85     9    44    31     7    24     0  0.00     0     0    20     0 51.96 13.04  63.9     0     0   181   208  0.54  0.76  67.4  99.9 15.00  0.00  0.00  0.00  0.00  0.00  0.00   2.0  1.00  1.00  0.03  0.67
 1981 354    75    65  -4.2 -20.0 14.74  4.74  0.01  0.00   0.0  0.02 0.003  0.02    84     9    44    31     7    24     0  0.00     0     0    20     0 51.96 13.40  63.9     0     0   181   208  0.54  0.76  70.0  99.9 15.00  0.00  0.00  0.00  0.00  0.00  0.00   2.0  1.00  1.00  0.01  0.67
 1981 355    76    66   2.0 -20.0 14.76  4.76  0.01  1.06   0.1  0.02 0.003  0.02    84     9    43    32     7    24     0  0.00     0     0    20     0 51.96 13.75  63.7     0     0   184   209  0.54  0.76  72.1  99.9 15.00  0.00  0.00  0.00  0.00  0.00  0.00   2.0  0.61  0.81  0.00  0.67
 1981 356    77    67   1.7 -20.0 14.78  4.78  0.01  0.93   0.1  0.02 0.003  0.02    84     9    43    32     7    24     0  0.00     0     0    20     0 51.96 14.09  63.6     0     0   186   210  0.54  0.76  72.2  99.9 15.00  0.00  0.00  0.00  0.00  0.00  0.00   2.0  0.66  0.83  0.00  0.67
 1981 357    78    68  -1.1 -20.0 14.78  4.78  0.01  0.00   0.0  0.02 0.003  0.02    84     9    43    32     7    24     0  0.00     0     0    20     0 51.96 14.44  63.6     0     0   186   210  0.54  0.76  71.1  99.9 15.00  0.00  0.00  0.00  0.00  0.00  0.00   2.0  1.00  1.00  0.00  0.67
 1981 358    79    69  -0.3 -20.0 14.78  4.78  0.01  0.00   0.0  0.02 0.003  0.02    83     9    42    32     7    24     0  0.00     0     0    20     0 51.96 14.78  63.6     0     0   186   210  0.54  0.76  70.1  99.9 15.00  0.00  0.00  0.00  0.00  0.00  0.00   2.0  1.00  1.00  0.00  0.67
 1981 359    80    70   1.6 -20.0 14.80  4.80  0.01  0.90   0.4  0.02 0.003  0.02    83     9    42    32     8    24     0  0.00     0     0    20     0 51.96 15.12  63.7     0     0   189   211  0.54  0.76  69.3  99.9 15.00  0.00  0.00  0.00  0.00  0.00  0.00   2.0  0.67  0.84  0.00  0.67
 1981 360    81    71  -1.7 -20.0 14.80  4.80  0.01  0.00   0.0  0.02 0.003  0.02    83     9    42    32     8    24     0  0.00     0     0    20     0 51.96 15.46  63.7     0     0   189   211  0.54  0.76  68.7  99.9 15.00  0.00  0.00  0.00  0.00  0.00  0.00   2.0  1.00  1.00  0.00  0.67
 1981 361    82    72  -3.1 -20.0 14.80  4.80  0.01  0.00   0.0  0.02 0.003  0.02    83     9    42    32     8    24     0  0.00     0     0    20     0 51.96 15.79  63.7     0     0   189   211  0.54  0.76  68.5  99.9 15.00  0.00  0.00  0.00  0.00  0.00  0.00   2.0  1.00  1.00  0.00  0.67
 1981 362    83    73  -4.4 -20.0 14.80  4.80  0.01  0.00   0.0  0.02 0.003  0.02    82     9    41    32     8    24     0  0.00     0     0    20     0 51.96 16.13  63.7     0     0   189   211  0.54  0.76  68.3  99.9 15.00  0.00  0.00  0.00  0.00  0.00  0.00   2.0  1.00  1.00  0.00  0.66
 1981 363    84    74  -3.6 -20.0 14.80  4.80  0.01  0.00   0.0  0.02 0.003  0.02    82     9    41    32     8    24     0  0.00     0     0    20     0 51.96 16.46  63.7     0     0   189   211  0.54  0.76  67.7  99.9 15.00  0.00  0.00  0.00  0.00  0.00  0.00   2.0  1.00  1.00  0.00  0.66
 1981 364    85    75   1.7 -20.0 14.82  4.82  0.01  0.93   0.4  0.02 0.003  0.02    82     9    41    32     8    25     0  0.00     0     0    21     0 51.96 16.78  63.8     0     0   191   212  0.54  0.76  67.1  99.9 15.00  0.00  0.00  0.00  0.00  0.00  0.00   2.0  0.66  0.83  0.00  0.66
 1981 365    86    76   0.0 -20.0 14.82  4.82  0.01  0.00   0.0  0.02 0.003  0.02    82     9    40    32     8    25     0  0.00     0     0    21     0 51.96 17.11  63.8     0     0   191   212  0.54  0.76  66.4  99.9 15.00  0.00  0.00  0.00  0.00  0.00  0.00   2.0  1.00  1.00  0.00  0.66
 1982   1    87    77  -6.1 -20.0 14.82  4.82  0.01  0.00   0.0  0.02 0.003  0.02    81     9    40    32     8    25     0  0.00     0     0    21     0 51.96 17.43  63.8     0     0   191   212  0.54  0.76  66.3  99.9 15.00  0.00  0.00  0.00  0.00  0.00  0.00   2.0  1.00  1.00  0.00  0.66
 1982   2    88    78   0.8 -20.0 14.83  4.83  0.01  0.46   0.0  0.02 0.003  0.02    81     9    40    32     8    25     0  0.00     0     0    21     0 51.96 17.75  63.7     0     0   192   212  0.54  0.76  68.2  99.9 15.00  0.00  0.00  0.00  0.00  0.00  0.00   2.0  0.83  0.92  0.00  0.66
 1982   3    89    79  -6.3 -20.0 14.83  4.83  0.01  0.00   0.0  0.02 0.003  0.02    81     9    39    32     8    25     0  0.00     0     0    21     0 51.96 18.07  63.7     0     0   192   212  0.54  0.76  68.2  99.9 15.00  0.00  0.00  0.00  0.00  0.00  0.00   2.0  1.00  1.00  0.00  0.66
 1982   4    90    80  -6.1 -20.0 14.83  4.83  0.01  0.00   0.0  0.02 0.003  0.02    80     9    39    32     8    25     0  0.00     0     0    21     0 51.96 18.38  63.7     0     0   192   212  0.54  0.76  73.2  99.9 15.00  0.00  0.00  0.00  0.00  0.00  0.00   2.0  1.00  1.00  0.00  0.66
 1982   5    91    81  -1.6 -20.0 14.83  4.83  0.01  0.00   0.0  0.02 0.003  0.02    80     9    39    32     8    25     0  0.00     0     0    21     0 51.96 18.69  63.7     0     0   192   212  0.54  0.76  72.1  99.9 15.00  0.00  0.00  0.00  0.00  0.00  0.00   2.0  1.00  1.00  0.00  0.66
 1982   6    92    82 -10.9 -20.0 14.83  4.83  0.01  0.00   0.0  0.01 0.002  0.02    74     9    38    27     6    21     0  0.00     0     0    17     0 53.82 19.00  63.4     0     0   192   212  0.54  0.76  72.0  99.9 15.00  0.00  0.00  0.00  0.00  0.00  0.00   2.0  1.00  1.00  0.00  0.65
 1982   7    93    83 -11.4 -20.0 14.83  4.83  0.01  0.00   0.0  0.01 0.002  0.01    67     9    38    20     5    15     0  0.00     0     0    12     0 56.35 19.31  62.7     0     0   192   212  0.54  0.76  71.9  99.9 15.00  0.00  0.00  0.00  0.00  0.00  0.00   2.0  1.00  1.00  0.00  0.65
 1982   8    94    84  -2.8 -20.0 14.83  4.83  0.01  0.00   0.0  0.01 0.002  0.01    67     9    38    20     5    15     0  0.00     0     0    12     0 56.35 19.61  62.7     0     0   192   212  0.54  0.76  70.9  99.9 15.00  0.00  0.00  0.00  0.00  0.00  0.00   2.0  1.00  1.00  0.00  0.65
 1982   9    95    85  -8.4 -20.0 14.83  4.83  0.01  0.00   0.0  0.01 0.002  0.01    66     9    37    20     5    15     0  0.00     0     0    12     0 56.35 19.91  62.7     0     0   192   212  0.54  0.76  70.7  99.9 15.00  0.00  0.00  0.00  0.00  0.00  0.00   2.0  1.00  1.00  0.00  0.65
 1982  10    96    86 -18.6 -20.0 14.83  4.83  0.00  0.00   0.0  0.00 0.001  0.00    51     9    37     5     2     3     0  0.00     0     0     1     0 59.62 20.21  17.5     0     0   192    30  0.54  0.76  70.7  99.9 15.00  0.00  0.00  0.00  0.00  0.00  0.00   2.0  1.00  1.00  0.00  0.65
 1982  11    97    87 -13.4 -20.0 14.83  4.83  0.00  0.00   0.0  0.00 0.001  0.00    51     9    37     5     2     3     0  0.00     0     0     1     0 59.62 20.51  17.5     0     0   192    30  0.54  0.76  70.6  99.9 15.00  0.00  0.00  0.00  0.00  0.00  0.00   2.0  1.00  1.00  0.00  0.64
 1982  12    98    88  -9.1 -20.0 14.83  4.83  0.00  0.00   0.0  0.00 0.001  0.00    51     9    37     5     2     3     0  0.00     0     0     1     0 59.62 20.81  17.5     0     0   192    30  0.54  0.76  70.6  99.9 15.00  0.00  0.00  0.00  0.00  0.00  0.00   2.0  1.00  1.00  0.00  0.64
 1982  13    99    89 -14.5 -20.0 14.83  4.83  0.00  0.00   0.0  0.00 0.001  0.00    50     9    36     5     2     3     0  0.00     0     0     1     0 59.62 21.10  17.5     0     0   192    30  0.54  0.76  70.5  99.9 15.00  0.00  0.00  0.00  0.00  0.00  0.00   2.0  1.00  1.00  0.00  0.64
 1982  14   100    90  -3.0 -20.0 14.83  4.83  0.00  0.00   0.0  0.00 0.001  0.00    50     9    36     5     2     3     0  0.00     0     0     1     0 59.62 21.39  17.5     0     0   192    30  0.54  0.76  72.3  99.9 15.00  0.00  0.00  0.00  0.00  0.00  0.00   2.0  1.00  1.00  0.00  0.64
 1982  15   101    91  -1.4 -20.0 14.83  4.83  0.00  0.00   0.0  0.00 0.001  0.00    50     9    36     5     2     3     0  0.00     0     0     1     0 59.62 21.68  17.5     0     0   192    30  0.54  0.76  71.6  99.9 15.00  0.00  0.00  0.00  0.00  0.00  0.00   2.0  1.00  1.00  0.00  0.64
 1982  16   102    92 -14.1 -20.0 14.83  4.83  0.00  0.00   0.0  0.00 0.001  0.00    50     9    35     5     2     3     0  0.00     0     0     1     0 59.62 21.96  17.5     0     0   192    30  0.54  0.76  71.6  99.9 15.00  0.00  0.00  0.00  0.00  0.00  0.00   2.0  1.00  1.00  0.00  0.63
 1982  17   103    93  -8.7 -20.0 14.83  4.83  0.00  0.00   0.0  0.00 0.001  0.00    49     9    35     5     2     3     0  0.00     0     0     1     0 59.62 22.25  17.5     0     0   192    30  0.54  0.76  71.3  99.9 15.00  0.00  0.00  0.00  0.00  0.00  0.00   2.0  1.00  1.00  0.00  0.63
 1982  18   104    94   0.3 -20.0 14.83  4.83  0.00  0.16   0.0  0.00 0.001  0.00    49     9    35     5     2     3     0  0.00     0     0     1     0 59.62 22.53  17.5     0     0   193    30  0.54  0.76  70.3  99.9 15.00  0.00  0.00  0.00  0.00  0.00  0.00   2.0  0.94  0.97  0.00  0.63
 1982  19   105    95  -0.6 -20.0 14.83  4.83  0.00  0.00   0.0  0.00 0.001  0.00    49     9    35     5     2     3     0  0.00     0     0     1     0 59.62 22.81  17.5     0     0   193    30  0.54  0.76  69.4  99.9 15.00  0.00  0.00  0.00  0.00  0.00  0.00   2.0  1.00  1.00  0.00  0.62
 1982  20   106    96  -3.3 -20.0 14.83  4.83  0.00  0.00   0.0  0.00 0.001  0.00    48     9    34     5     2     3     0  0.00     0     0     1     0 59.62 23.08  17.5     0     0   193    30  0.54  0.76  69.3  99.9 15.00  0.00  0.00  0.00  0.00  0.00  0.00   2.0  1.00  1.00  0.00  0.62
 1982  21   107    97  -5.0 -20.0 14.83  4.83  0.00  0.00   0.0  0.00 0.001  0.00    48     9    34     5     2     3     0  0.00     0     0     1     0 59.62 23.36  17.5     0     0   193    30  0.54  0.76  69.3  99.9 15.00  0.00  0.00  0.00  0.00  0.00  0.00   2.0  1.00  1.00  0.00  0.62
 1982  22   108    98  -2.2 -20.0 14.83  4.83  0.00  0.00   0.0  0.00 0.001  0.00    48     9    34     5     2     3     0  0.00     0     0     1     0 59.62 23.63  17.5     0     0   193    30  0.54  0.76  70.8  99.9 15.00  0.00  0.00  0.00  0.00  0.00  0.00   2.0  1.00  1.00  0.00  0.62
 1982  23   109    99 -10.9 -20.0 14.83  4.83  0.00  0.00   0.0  0.00 0.001  0.00    48     9    33     5     2     3     0  0.00     0     0     1     0 59.64 23.90  17.5     0     0   193    30  0.54  0.76  70.7  99.9 15.00  0.00  0.00  0.00  0.00  0.00  0.00   2.0  1.00  1.00  0.00  0.61
 1982  24   110   100  -7.5 -20.0 14.83  4.83  0.00  0.00   0.0  0.00 0.001  0.00    47     9    33     5     2     3     0  0.00     0     0     1     0 59.64 24.17  17.5     0     0   193    30  0.54  0.76  70.5  99.9 15.00  0.00  0.00  0.00  0.00  0.00  0.00   2.0  1.00  1.00  0.00  0.61
 1982  25   111   101  -1.1 -20.0 14.83  4.83  0.00  0.00   0.0  0.00 0.001  0.00    47     9    33     5     2     3     0  0.00     0     0     1     0 59.64 24.43  17.5     0     0   193    30  0.54  0.76  74.8  99.9 15.00  0.00  0.00  0.00  0.00  0.00  0.00   2.0  1.00  1.00  0.00  0.61
 1982  26   112   102   1.4 -20.0 14.84  4.84  0.00  0.76   0.0  0.00 0.001  0.00    47     9    33     5     2     3     0  0.00     0     0     1     0 59.64 24.70  17.4     0     0   194    32  0.54  0.76  79.2  99.9 15.00  0.00  0.00  0.00  0.00  0.00  0.00   2.0  0.72  0.86  0.00  0.60
 1982  27   113   103   8.1 -20.0 14.93  4.93  0.00  2.72   0.1  0.00 0.001  0.00    47     9    32     5     2     3     0  0.00     0     0     1     0 59.64 24.96  17.2     0     0   205    38  0.55  0.76  76.8  99.9 15.00  0.00  0.00  0.00  0.00  0.00  0.00   2.0  0.00  0.19  0.00  0.60
 1982  28   114   104   0.0 -20.0 14.93  4.93  0.00  0.00   0.0  0.00 0.001  0.00    46     9    32     5     2     3     0  0.00     0     0     1     0 59.64 25.22  17.2     0     0   205    37  0.55  0.76  75.7  99.9 15.00  0.00  0.00  0.00  0.00  0.00  0.00   2.0  1.00  1.00  0.00  0.60
 1982  29   115   105   5.2 -20.0 14.98  4.98  0.00  2.72   0.0  0.00 0.001  0.00    46     9    32     5     2     3     0  0.00     0     0     1     0 59.64 25.47  17.2     0     0   213    38  0.55  0.76  76.0  99.9 15.00  0.00  0.00  0.00  0.00  0.00  0.00   2.0  0.00  0.48  0.00  0.59
 1982  30   116   106   0.0 -20.0 14.98  4.98  0.00  0.00   0.0  0.00 0.001  0.00    46     9    32     5     2     3     0  0.00     0     0     1     0 59.64 25.73  17.2     0     0   213    38  0.55  0.76  80.6  99.9 15.00  0.00  0.00  0.00  0.00  0.00  0.00   2.0  1.00  1.00  0.00  0.59
 1982  31   117   107  -7.2 -20.0 14.98  4.98  0.00  0.00   0.0  0.00 0.001  0.00    46     9    31     5     2     3     0  0.00     0     0     1     0 59.64 25.98  17.2     0     0   213    38  0.55  0.76  78.9  99.9 15.00  0.00  0.00  0.00  0.00  0.00  0.00   2.0  1.00  1.00  0.00  0.59
 1982  32   118   108  -1.9 -20.0 14.98  4.98  0.00  0.00   0.0  0.00 0.001  0.00    45     9    31     5     2     3     0  0.00     0     0     1     0 59.64 26.23  17.2     0     0   213    38  0.55  0.76  78.0  99.9 15.00  0.00  0.00  0.00  0.00  0.00  0.00   2.0  1.00  1.00  0.00  0.58
 1982  33   119   109  -3.9 -20.0 14.98  4.98  0.00  0.00   0.0  0.00 0.001  0.00    45     9    31     5     2     3     0  0.00     0     0     1     0 59.64 26.48  17.2     0     0   213    38  0.55  0.76  77.9  99.9 15.00  0.00  0.00  0.00  0.00  0.00  0.00   2.0  1.00  1.00  0.00  0.58
 1982  34   120   110 -13.0 -20.0 14.98  4.98  0.00  0.00   0.0  0.00 0.001  0.00    44     9    31     4     2     2     0  0.00     0     0     1     0 60.17 26.73  16.7     0     0   213    38  0.55  0.76  77.9  99.9 15.00  0.00  0.00  0.00  0.00  0.00  0.00   2.0  1.00  1.00  0.00  0.57
 1982  35   121   111 -17.0 -20.0 14.98  4.98  0.00  0.00   0.0  0.00 0.001  0.00    44     9    30     4     2     2     0  0.00     0     0     1     0 60.17 26.97  16.7     0     0   213    38  0.55  0.76  77.9  99.9 15.00  0.00  0.00  0.00  0.00  0.00  0.00   2.0  1.00  1.00  0.00  0.57
 1982  36   122   112 -15.5 -20.0 14.98  4.98  0.00  0.00   0.0  0.00 0.001  0.00    44     9    30     4     2     2     0  0.00     0     0     1     0 60.17 27.22  16.7     0     0   213    38  0.55  0.76  77.8  99.9 15.00  0.00  0.00  0.00  0.00  0.00  0.00   2.0  1.00  1.00  0.00  0.57
 1982  37   123   113 -13.8 -20.0 14.98  4.98  0.00  0.00   0.0  0.00 0.001  0.00    43     9    30     4     2     2     0  0.00     0     0     1     0 60.17 27.46  16.7     0     0   213    38  0.55  0.76  77.7  99.9 15.00  0.00  0.00  0.00  0.00  0.00  0.00   2.0  1.00  1.00  0.00  0.56
 1982  38   124   114  -6.4 -20.0 14.98  4.98  0.00  0.00   0.0  0.00 0.001  0.00    43     9    30     4     2     2     0  0.00     0     0     1     0 60.17 27.70  16.7     0     0   213    38  0.55  0.76  78.9  99.9 15.00  0.00  0.00  0.00  0.00  0.00  0.00   2.0  1.00  1.00  0.00  0.56
 1982  39   125   115  -8.1 -20.0 14.98  4.98  0.00  0.00   0.0  0.00 0.001  0.00    43     9    29     4     2     2     0  0.00     0     0     1     0 60.17 27.94  16.7     0     0   213    38  0.55  0.76  78.4  99.9 15.00  0.00  0.00  0.00  0.00  0.00  0.00   2.0  1.00  1.00  0.00  0.56
 1982  40   126   116 -14.4 -20.0 14.98  4.98  0.00  0.00   0.0  0.00 0.001  0.00    43     9    29     4     2     2     0  0.00     0     0     1     0 60.17 28.17  16.7     0     0   213    38  0.55  0.76  78.1  99.9 15.00  0.00  0.00  0.00  0.00  0.00  0.00   2.0  1.00  1.00  0.00  0.55
 1982  41   127   117 -11.6 -20.0 14.98  4.98  0.00  0.00   0.0  0.00 0.001  0.00    42     9    29     4     2     2     0  0.00     0     0     1     0 60.17 28.41  16.7     0     0   213    38  0.55  0.76  78.0  99.9 15.00  0.00  0.00  0.00  0.00  0.00  0.00   2.0  1.00  1.00  0.00  0.55
 1982  42   128   118  -8.9 -20.0 14.98  4.98  0.00  0.00   0.0  0.00 0.001  0.00    42     9    29     4     2     2     0  0.00     0     0     1     0 60.17 28.64  16.7     0     0   213    38  0.55  0.76  77.7  99.9 15.00  0.00  0.00  0.00  0.00  0.00  0.00   2.0  1.00  1.00  0.00  0.54
 1982  43   129   119  -2.2 -20.0 14.98  4.98  0.00  0.00   0.0  0.00 0.001  0.00    42     9    29     4     2     2     0  0.00     0     0     1     0 60.17 28.87  16.7     0     0   213    38  0.55  0.76  87.2  99.9 15.00  0.00  0.00  0.00  0.00  0.00  0.00   2.0  1.00  1.00  0.00  0.54
 1982  44   130   120  -4.1 -20.0 14.98  4.98  0.00  0.00   0.0  0.00 0.001  0.00    42     9    28     4     2     2     0  0.00     0     0     1     0 60.17 29.10  16.7     0     0   213    38  0.55  0.76  86.1  99.9 15.00  0.00  0.00  0.00  0.00  0.00  0.00   2.0  1.00  1.00  0.00  0.53
 1982  45   131   121   2.8 -20.0 15.01  5.01  0.00  1.52   0.1  0.00 0.001  0.00    42     9    28     4     2     2     0  0.00     0     0     1     0 60.17 29.32  16.5     0     0   216    43  0.56  0.76  85.9  99.9 15.00  0.00  0.00  0.00  0.00  0.00  0.00   2.0  0.44  0.72  0.00  0.53
 1982  46   132   122   4.7 -20.0 15.06  5.06  0.00  2.56   0.0  0.00 0.001  0.00    41     9    28     4     2     2     0  0.00     0     0     1     0 60.17 29.55  16.4     0     0   223    46  0.56  0.76  80.8  99.9 15.00  0.00  0.00  0.00  0.00  0.00  0.00   2.0  0.06  0.53  0.00  0.53
 1982  47   133   123   3.6 -20.0 15.10  5.10  0.00  1.96   0.0  0.00 0.001  0.00    41     9    28     4     2     2     0  0.00     0     0     1     0 60.17 29.77  16.4     0     0   228    47  0.56  0.76  80.2  99.9 15.00  0.00  0.00  0.00  0.00  0.00  0.00   2.0  0.28  0.64  0.00  0.52
 1982  48   134   124   2.5 -20.0 15.13  5.13  0.00  1.36   0.0  0.00 0.001  0.00    41     9    27     4     2     2     0  0.00     0     0     1     0 60.17 29.99  16.4     0     0   231    48  0.57  0.76  79.6  99.9 15.00  0.00  0.00  0.00  0.00  0.00  0.00   2.0  0.50  0.75  0.00  0.52
 1982  49   135   125   7.0 -20.0 15.20  5.20  0.00  2.72   0.1  0.00 0.001  0.00    41     9    27     4     2     2     0  0.00     0     0     1     0 60.17 30.21  16.1     0     0   241    57  0.57  0.76  82.5  99.9 15.00  0.00  0.00  0.00  0.00  0.00  0.00   2.0  0.00  0.30  0.00  0.51
 1982  50   136   126   8.9 -20.0 15.29  5.29  0.00  2.72   0.2  0.00 0.001  0.00    41     9    27     5     2     2     0  0.00     0     0     1     0 60.17 30.43  15.6     0     0   253    70  0.58  0.76  79.3  99.9 15.00  0.00  0.00  0.00  0.00  0.00  0.00   2.0  0.00  0.11  0.00  0.51
 1982  51   137   127  11.1 -20.0 15.41  5.41  0.00  2.72   0.3  0.00 0.001  0.00    41     9    27     5     2     3     0  0.00     0     0     1     0 60.17 30.64  14.9     0     0   268    87  0.59  0.76  77.8  99.9 15.00  0.00  0.00  0.00  0.00  0.00  0.00   2.0  0.00  0.00  0.00  0.50
 1982  52   138   128  10.0 -20.0 15.52  5.52  0.00  2.72   0.4  0.00 0.001  0.00    41     9    27     5     3     3     0  0.00     0     0     1     0 60.17 30.86  14.2     0     0   282   105  0.60  0.76  76.3  99.9 15.00  0.00  0.00  0.00  0.00  0.00  0.00   2.0  0.00  0.00  0.00  0.50
 1982  53   139   129  12.2 -20.0 15.65  5.65  0.00  2.72   0.5  0.00 0.001  0.00    41     9    27     5     3     3     0  0.00     0     0     1     0 60.17 31.07  13.3     0     0   298   126  0.61  0.76  76.2  99.9 15.00  0.00  0.00  0.00  0.00  0.00  0.00   2.0  0.00  0.00  0.00  0.50
 1982  54   140   130   9.4 -20.0 15.75  5.75  0.00  2.72   0.1  0.00 0.001  0.00    41     9    26     6     3     3     0  0.00     0     0     1     0 60.17 31.28  13.2     0     0   311   128  0.61  0.76  76.4  99.9 15.00  0.00  0.00  0.00  0.00  0.00  0.00   2.0  0.00  0.06  0.00  0.49
 1982  55   141   131   3.3 -20.0 15.78  5.78  0.00  1.82   0.5  0.00 0.001  0.01    41     9    26     6     3     3     0  0.00     0     0     1     0 60.17 31.49  12.5     0     0   316   144  0.62  0.76  75.7  99.9 15.00  0.00  0.00  0.00  0.00  0.00  0.00   2.0  0.33  0.67  0.00  0.49
 1982  56   142   132  -1.4 -20.0 15.78  5.78  0.00  0.00   0.0  0.00 0.001  0.01    41     9    26     6     3     3     0  0.00     0     0     1     0 60.17 31.70  12.5     0     0   316   144  0.62  0.76  75.0  99.9 15.00  0.00  0.00  0.00  0.00  0.00  0.00   2.0  1.00  1.00  0.00  0.48
 1982  57   143   133  -2.0 -20.0 15.78  5.78  0.00  0.00   0.0  0.00 0.001  0.01    41     9    26     6     3     3     0  0.00     0     0     1     0 60.17 31.91  12.5     0     0   316   144  0.62  0.76  74.3  99.9 15.00  0.00  0.00  0.00  0.00  0.00  0.00   2.0  1.00  1.00  0.00  0.48
 1982  58   144   134   1.7 -20.0 15.80  5.80  0.00  0.90   0.3  0.00 0.001  0.01    41     9    26     6     3     3     0  0.00     0     0     1     0 60.17 32.12  13.0     0     0   318   150  0.62  0.76  73.8  99.9 15.00  0.00  0.00  0.00  0.00  0.00  0.00   2.0  0.67  0.83  0.00  0.47
 1982  59   145   135   4.7 -20.0 21.00  5.85  0.00  2.56   0.6  0.01 0.001  0.01    41     9    25     7     4     3     0  0.00     0     0     1     0 60.17 32.32  12.2     0     0   324   168  0.62  0.76  73.4  99.9 15.00  0.00  0.00  0.00  0.00  0.00  0.00   2.0  0.06  0.53  0.00  0.47
 1982  60   146   136   8.4 -20.0 21.07  5.94  0.01  2.72   1.1  0.01 0.002  0.01    42     9    25     7     4     3     0  0.00     0     0     1     0 60.17 32.53  10.9     0     0   336   192  0.63  0.76  73.3  99.9 15.00  0.00  0.00  0.00  0.00  0.00  0.00   2.0  0.00  0.16  0.00  0.47
 1982  61   147   137   8.7 -20.0 21.15  6.03  0.01  2.72   0.4  0.01 0.002  0.01    42     9    25     8     4     3     0  0.00     0     0     1     0 60.17 32.73  10.5     0     0   348   198  0.64  0.76  73.2  99.9 15.00  0.00  0.00  0.00  0.00  0.00  0.00   2.0  0.00  0.13  0.00  0.46
 1982  62   148   138  -0.2 -20.0 21.15  6.03  0.01  0.00   0.0  0.01 0.002  0.01    42     9    25     8     4     3     0  0.00     0     0     1     0 60.17 32.93  10.5     0     0   348   198  0.64  0.77  73.1  99.9 15.00  0.00  0.00  0.00  0.00  0.00  0.00   2.0  1.00  1.00  0.00  0.46
 1982  63   149   139  -3.7 -20.0 21.15  6.03  0.01  0.00   0.0  0.01 0.002  0.01    42     9    25     8     4     3     0  0.00     0     0     1     0 60.17 33.13  10.5     0     0   348   198  0.64  0.77  73.0  99.9 15.00  0.00  0.00  0.00  0.00  0.00  0.00   2.0  1.00  1.00  0.00  0.45
 1982  64   150   140  -4.2 -20.0 21.15  6.03  0.01  0.00   0.0  0.01 0.002  0.01    42     9    25     8     4     3     0  0.00     0     0     1     0 60.17 33.33  10.5     0     0   348   198  0.64  0.77  72.7  99.9 15.00  0.00  0.00  0.00  0.00  0.00  0.00   2.0  1.00  1.00  0.00  0.45
 1982  65   151   141  -3.0 -20.0 21.15  6.03  0.01  0.00   0.0  0.01 0.002  0.01    41     9    24     8     4     3     0  0.00     0     0     1     0 60.17 33.53  10.5     0     0   348   198  0.64  0.77  72.7  99.9 15.00  0.00  0.00  0.00  0.00  0.00  0.00   2.0  1.00  1.00  0.00  0.44
 1982  66   152   142  -3.0 -20.0 21.15  6.03  0.01  0.00   0.0  0.01 0.002  0.01    41     9    24     8     4     3     0  0.00     0     0     1     0 60.17 33.73  10.5     0     0   348   198  0.64  0.77  72.3  99.9 15.00  0.00  0.00  0.00  0.00  0.00  0.00   2.0  1.00  1.00  0.00  0.44
 1982  67   153   143   2.5 -20.0 21.17  6.05  0.01  1.36   0.9  0.01 0.002  0.01    42     9    24     8     5     4     0  0.00     0     0     1     0 60.17 33.92  11.0     0     0   351   209  0.64  0.77  71.9  99.9 15.00  0.00  0.00  0.00  0.00  0.00  0.00   2.0  0.50  0.75  0.00  0.43
 1982  68   154   144   1.4 -20.0 21.18  6.07  0.01  0.76   0.4  0.01 0.002  0.01    42     9    24     9     5     4     0  0.00     0     0     1     0 60.17 34.11  12.3     0     0   353   212  0.64  0.77  71.6  99.9 15.00  0.00  0.00  0.00  0.00  0.00  0.00   2.0  0.72  0.86  0.00  0.43
 1982  69   155   145  11.1 -20.0 21.27  6.18  0.01  2.72   1.9  0.01 0.002  0.02    44     9    24    10     6     4     0  0.00     0     0     1     0 60.17 34.31  10.7     0     0   368   232  0.65  0.77  71.8  99.9 15.00  0.00  0.00  0.00  0.00  0.00  0.00   2.0  0.00  0.00  0.00  0.42
 1982  70   156   146  10.0 -20.0 21.36  6.29  0.01  2.72   2.1  0.02 0.002  0.02    45     9    24    12     7     5     0  0.00     0     0     1     0 60.17 34.50   9.5     0     0   382   246  0.66  0.77  72.1  99.9 15.00  0.00  0.00  0.00  0.00  0.00  0.00   2.0  0.00  0.00  0.00  0.42
 1982  71   157   147  12.8 -20.0 21.46  6.42  0.02  2.72   1.5  0.02 0.003  0.02    46     9    24    13     8     5     0  0.00     0     0     1     0 60.17 34.69   8.8     0     0   399   254  0.67  0.77  72.6  99.9 15.00  0.00  0.00  0.00  0.00  0.00  0.00   2.0  0.00  0.00  0.00  0.42
 1982  72   158   148   8.0 -20.0 21.53  6.51  0.02  2.72   3.8  0.03 0.003  0.03    50     9    25    16    10     6     0  0.00     0     0     1     0 60.17 34.89   7.4     0     0   410   268  0.67  0.77  72.8  99.9 14.37  0.00  0.00  0.00  0.00  0.00  0.00   2.0  0.00  0.20  0.00  0.41
 1982  73   159   149   7.8 -20.0 21.60  6.59  0.02  2.72   0.4  0.03 0.003  0.03    50     9    24    16    10     6     0  0.00     0     0     1     0 60.17 35.09   7.3     0     0   421   268  0.68  0.77  73.0  99.9 15.00  0.00  0.00  0.00  0.00  0.00  0.00   2.0  0.00  0.22  0.00  0.41
 1982  74   160   150  10.0 -20.0 21.68  6.70  0.03  2.72   1.7  0.03 0.004  0.03    51     9    25    18    11     7     0  0.00     0     0     1     0 60.17 35.28   6.9     0     0   434   272  0.69  0.77  93.7  99.9 15.00  0.00  0.00  0.00  0.00  0.00  0.00   2.0  0.00  0.00  0.00  0.40
 1982  75   161   151  13.0 -20.0 21.79  6.83  0.03  2.72   6.6  0.04 0.005  0.05    57     9    25    23    15     8     0  0.00     0     0     1     0 60.17 35.48   5.7     0     0   452   284  0.70  0.77  96.9  99.9  8.53  0.00  0.00  0.00  0.00  0.00  0.00   2.0  0.00  0.00  0.00  0.40
 1982  76   162   152  13.9 -20.0 21.91  6.98  0.05  2.72   8.3  0.06 0.006  0.06    64     9    26    29    19    10     0  0.00     0     0     1     0 60.17 35.68   4.9     0     0   471   295  0.71  0.77  89.3  99.9  6.80  0.00  0.00  0.00  0.00  0.00  0.00   2.0  0.00  0.00  0.00  0.39
 1982  77   163   153   9.8 -20.0 21.99  7.08  0.05  2.72   1.3  0.06 0.007  0.06    65     9    26    30    19    11     0  0.00     0     0     1     0 60.17 35.89   4.8     0     0   484   297  0.72  0.77  88.8  99.9 15.00  0.00  0.00  0.00  0.00  0.00  0.00   2.0  0.00  0.02  0.00  0.39
 1982  78   164   154  16.1 -20.0 22.13  7.25  0.06  2.72  10.8  0.08 0.009  0.08    75     9    27    38    25    14     0  0.00     0     0     2     0 60.17 36.10   4.2     0     0   506   305  0.73  0.77  98.9  99.9  5.24  0.00  0.00  0.00  0.00  0.00  0.00   2.0  0.00  0.00  0.00  0.39
 1982  79   165   155   8.3 -20.0 22.20  7.34  0.08  2.72  18.0  0.10 0.011  0.11    91     9    30    52    33    20     0  0.00     0     0     6     0 60.17 36.32  10.7     0     0   518   298  0.74  0.77  90.8  99.9  3.98  0.00  0.00  0.00  0.00  0.00  0.00   2.0  0.00  0.17  0.00  0.38
 1982  80   166   156   2.5 -20.0 22.22  7.37  0.08  1.36  10.8  0.10 0.011  0.11   101     9    31    61    33    27     0  0.00     0     0    13     0 60.17 36.55  21.5     0     0   521   297  0.74  0.77  87.6  99.9  4.25  0.00  0.00  0.00  0.00  0.00  0.00   2.0  0.50  0.75  0.00  0.38
 1982  81   167   157   3.9 -20.0 22.25  7.41  0.08  2.12  18.7  0.10 0.012  0.12   118     9    33    75    35    40     0  0.00     0     0    25     0 60.17 36.80  33.7     0     0   527   297  0.74  0.77  84.7  99.9  3.77  0.00  0.00  0.00  0.00  0.00  0.00   2.0  0.22  0.61  0.00  0.37
 1982  82   168   158   7.8 -20.0 22.32  7.49  0.10  2.72  13.1  0.12 0.014  0.14   129     9    35    85    41    44     0  0.00     0     0    27     0 60.17 37.07  31.4     0     0   537   299  0.75  0.78  84.1  99.9  6.81  0.00  0.00  0.00  0.00  0.00  0.00   2.0  0.00  0.22  0.00  0.37
 1982  83   169   159   6.6 -20.0 22.37  7.56  0.11  2.72  23.0  0.14 0.015  0.15   150     9    37   103    45    58     0  0.00     0     0    38     0 60.17 37.34  37.0     0     0   546   299  0.75  0.78  83.4  99.9  4.17  0.00  0.00  0.00  0.00  0.00  0.00   1.3  0.00  0.34  0.00  0.36
 1982  84   170   160   3.9 -20.0 22.42  7.60  0.11  2.10  24.6  0.14 0.016  0.16   172     9    40   122    47    75     0  0.00     0     0    55     0 60.17 37.64  45.1     0     0   554   299  0.76  0.78  86.7  99.9  3.58  0.00  0.00  0.00  0.00  0.00  0.00   2.0  0.23  0.62  0.00  0.36
 1982  85   171   161   3.0 -20.0 22.46  7.63  0.11  1.66  20.2  0.14 0.016  0.16   190     9    43   138    48    90     0  0.00     0     0    69     0 60.17 37.97  50.3     0     0   560   299  0.76  0.78  85.5  99.9  3.64  0.00  0.00  0.00  0.00  0.00  0.00   2.0  0.39  0.69  0.00  0.35
 1982  86   172   162   5.6 -20.0 22.53  7.69  0.12  2.72  27.5  0.15 0.017  0.17   215     9    46   159    51   108     0  0.00     0     0    86     0 60.17 38.31  54.2     0     0   572   299  0.77  0.78  84.6  99.9  4.44  0.00  0.00  0.00  0.00  0.00  0.00   2.0  0.00  0.44  0.00  0.35
 1982  87   173   163   6.9 -20.0 22.62  7.76  0.13  2.72  20.9  0.17 0.019  0.19   233     9    49   175    56   119     0  0.00     0     0    95     0 60.17 38.68  54.4     0     0   586   299  0.77  0.78  83.9  99.9  6.09  0.00  0.00  0.00  0.00  0.00  0.00   1.6  0.00  0.31  0.00  0.35
 1982  88   174   164  10.3 -20.0 22.71  7.87  0.15  2.72  14.8  0.19 0.021  0.21   246     9    50   187    64   123     0  0.00     0     0    96     0 60.17 39.07  51.2     0     0   602   299  0.78  0.78  83.4  99.9  8.31  0.00  0.00  0.00  0.00  0.00  0.00   1.1  0.00  0.00  0.00  0.34
 1982  89   175   165  15.0 -20.0 22.90  8.03  0.18  2.72  39.6  0.24 0.026  0.27   282     9    55   218    80   138     0  0.00     0     0   104     0 60.17 39.47  47.8     0     0   632   300  0.79  0.78  84.4  99.9  2.89  0.00  0.00  0.00  0.00  0.00  0.00   0.5  0.00  0.00  0.00  0.34
 1982  90   176   166  10.9 -20.0 23.03  8.14  0.21  2.44  52.2  0.27 0.030  0.30   329     9    62   258    92   166     0  0.00     0     0   128     0 60.35 39.91  49.5     0     0   652   298  0.80  0.77  83.4  99.9  2.32  0.00  0.00  0.00  0.10  0.10  0.10   0.7  0.00  0.00  0.00  0.33
 1982  91   177   167  13.9 -20.0 23.18  8.29  0.24  2.37  53.3  0.32 0.036  0.36   377     9    69   299   109   189     0  0.00     0     0   143     0 60.35 40.40  48.0     0     0   677   297  0.81  0.77  82.6  99.9  2.28  0.00  0.00  0.00  0.13  0.13  0.13   0.5  0.00  0.00  0.00  0.33
 1982  92   178   168  17.0 -20.0 23.35  8.47  0.28  2.20  45.5  0.38 0.043  0.42   417     9    75   333   130   204     0  0.00     0     0   150     0 60.35 40.95  45.1     0     0   705   295  0.83  0.76  82.0  99.9  2.62  0.00  0.00  0.00  0.19  0.19  0.19   0.5  0.00  0.00  0.00  0.33
 1982  93   179   169   7.5 -20.0 23.42  8.55  0.29  2.04  65.6  0.40 0.045  0.44   476     9    84   383   136   247     0  0.00     0     0   191     0 60.35 41.55  49.9     0     0   716   293  0.83  0.76  80.8  85.4  2.32  0.00  0.00  0.00  0.25  0.25  0.25   1.1  0.00  0.25  0.00  0.32
 1982  94   180   170   5.2 -20.0 23.52  8.60  0.29  2.11  54.1  0.41 0.046  0.45   524     9    91   424   140   285     0  0.00     0     0   228     0 60.35 42.22  53.7     0     0   733   293  0.84  0.76  79.8  99.9  3.09  0.00  0.00  0.00  0.23  0.23  0.23   1.7  0.00  0.48  0.00  0.32
 1982  95   181   171   3.6 -20.0 23.59  8.64  0.30  1.55  20.3  0.41 0.046  0.46   542     9    93   440   141   298     0  0.00     0     0   241     0 60.35 42.94  54.9     0     0   744   292  0.84  0.76  85.5  99.9  6.71  0.00  0.00  0.00  0.21  0.21  0.21   2.0  0.28  0.64  0.00  0.31
 1982  96   182   172  -0.8 -20.0 23.59  8.64  0.30  0.00   0.0  0.41 0.046  0.46   541     9    92   440   142   298     0  0.00     0     0   241     0 60.35 43.68  54.9     0     0   744   292  0.84  0.77  83.9  99.9  4.79  0.00  0.00  0.00  0.19  0.19  0.19   2.0  1.00  1.00  0.00  0.31
 1982  97   183   173   3.0 -20.0 23.66  8.67  0.30  1.35   9.4  0.42 0.047  0.46   549     9    93   447   143   304     0  0.00     0     0   247     0 60.35 44.42  55.2     0     0   755   292  0.84  0.77  83.3  99.9 15.00  0.00  0.00  0.00  0.18  0.18  0.18   2.0  0.39  0.69  0.00  0.31
 1982  98   184   174   4.4 -20.0 23.75  8.72  0.30  1.98  33.1  0.42 0.047  0.47   578     9    96   472   145   327     0  0.00     0     0   269     0 60.35 45.16  56.9     0     0   769   291  0.85  0.77  83.0  99.9  6.03  0.00  0.00  0.00  0.17  0.17  0.17   2.0  0.12  0.56  0.00  0.30
 1982  99   185   175   4.1 -20.0 23.84  8.76  0.31  1.90  70.2  0.43 0.048  0.48   641     9   105   526   148   379     0  0.00     0     0   320     0 60.35 45.93  60.8     0     0   784   291  0.85  0.77  81.3  79.7  2.78  0.00  0.00  0.00  0.16  0.16  0.16   2.0  0.17  0.59  0.00  0.30
 1982 100   186   176   8.7 -20.0 24.02  8.85  0.32  2.32  84.3  0.46 0.051  0.51   717     9   116   591   157   434     0  0.00     0     0   372     0 60.35 46.78  62.8     0     0   814   290  0.86  0.77  79.8  71.9  2.79  0.00  0.00  0.00  0.15  0.15  0.15   1.1  0.00  0.13  0.00  0.29
 1982 101   187   177  13.6 -20.0 24.32  9.00  0.35  2.37  86.0  0.51 0.058  0.57   794     9   127   658   177   480     0  0.00     0     0   409     0 60.35 47.70  62.2     0     0   862   289  0.87  0.77  78.5  62.4  2.71  0.00  0.00  0.00  0.13  0.13  0.13   0.6  0.00  0.00  0.00  0.29
 1982 102   188   178  20.2 -20.0 24.75  9.21  0.40  2.28  96.8  0.60 0.067  0.66   881     9   139   733   207   526     0  0.00     0     0   443     0 60.35 48.72  60.4     0     0   932   288  0.88  0.77  77.2  45.8  2.21  0.00  0.00  0.00  0.16  0.16  0.16   0.4  0.00  0.02  0.00  0.29
 1982 103   189   179  16.1 -20.0 25.06  9.38  0.43  2.09  99.4  0.66 0.075  0.73   970     9   152   809   230   579     0  0.00     0     0   488     0 60.63 49.83  60.3     0     0   982   285  0.90  0.77  75.7  44.1  2.21  0.00  0.00  0.00  0.23  0.23  0.23   0.5  0.00  0.00  0.00  0.28
 1982 104   190   180  21.1 -20.0 25.46  9.60  0.46  2.01 102.3  0.73 0.084  0.82  1061     9   165   886   259   628     0  0.00     0     0   525     0 61.00 51.05  59.3     0     0  1046   283  0.91  0.77  74.1  36.2  1.83  0.00  0.00  0.00  0.26  0.26  0.26   0.4  0.00  0.08  0.00  0.28
 1982 105   191   181  24.2 -20.0 26.03  9.86  0.49  1.89  74.5  0.80 0.092  0.89  1126     9   174   943   284   659     0  0.00     0     0   548     0 61.43 52.37  58.2     0     0  1138   281  0.93  0.76  73.1  44.0  2.38  0.00  0.00  0.00  0.31  0.31  0.31   0.4  0.00  0.28  0.00  0.27
 1982 106   192   182  18.4 -20.0 26.31 10.05  0.51  1.84  36.2  0.85 0.098  0.95  1157     9   178   970   305   665     0  0.00     0     0   550     0 61.75 53.76  56.7     0     0  1184   278  0.95  0.76  72.8  97.6  5.54  0.00  0.00  0.00  0.32  0.32  0.32   0.5  0.00  0.00  0.00  0.27
 1982 107   193   183  10.0 -20.0 26.54 10.16  0.53  1.84 122.2  0.88 0.103  0.99  1266     9   194  1062   320   742     0  0.00     0     0   622     0 62.87 55.19  58.6     0     0  1221   276  0.96  0.76  70.8  34.0  2.02  0.00  0.00  0.00  0.32  0.32  0.32   0.5  0.00  0.00  0.00  0.27
 1982 108   194   184  12.2 -20.0 26.81 10.28  0.54  1.83 117.1  0.93 0.108  1.03  1369     9   209  1151   338   813     0  0.00     0     0   686     0 64.24 56.74  59.7     0     0  1266   274  0.97  0.76  68.9  32.0  1.80  0.00  0.00  0.00  0.33  0.33  0.33   0.5  0.00  0.00  0.00  0.26
 1982 109   195   185  15.3 -20.0 27.15 10.44  0.57  1.81 116.1  0.98 0.115  1.09  1471     9   224  1238   360   878     0  0.00     0     0   744     0 65.95 58.41  60.1     0     0  1321   272  0.98  0.77  69.7  31.0  1.60  0.00  0.00  0.00  0.34  0.34  0.34   0.4  0.00  0.00  0.00  0.26
 1982 110   196   186   6.7 -20.0 27.15 10.51  0.57  1.76 122.0  1.00 0.117  1.11  1579     9   239  1331   368   963     0  0.00     0     0   827     0 66.47 60.20  62.2     0     0  1321   271  0.99  0.77  67.4  33.8  2.44  0.00  0.00  0.00  0.35  0.35  0.35   0.8  0.00  0.33  0.00  0.00
 1982 111   197   187   7.0 -20.0 27.15 10.59  0.58  1.82 117.2  1.01 0.120  1.13  1683     9   253  1420   376  1044     0  0.00     0     0   906     0 67.00 62.11  63.8     0     0  1321   270  0.99  0.77  65.4  34.6  2.09  0.00  0.00  0.00  0.33  0.33  0.33   0.7  0.00  0.30  0.00  0.00
 1982 112   198   188   8.6 -20.0 27.15 10.68  0.59  1.87 142.5  1.04 0.124  1.17  1809     9   271  1529   389  1140     0  0.00     0     0   998     0 67.67 64.14  65.3     0     0  1321   269  1.00  0.77  63.1  27.1  1.70  0.00  0.00  0.00  0.31  0.31  0.31   0.5  0.00  0.14  0.00  0.00
 1982 113   199   189  11.7 -20.0 27.15 10.80  0.61  1.88 125.3  1.09 0.130  1.22  1920     9   286  1625   409  1216     0  0.00     0     0  1066     0 68.58 66.31  65.6     0     0  1321   267  1.01  0.77  61.1  27.5  1.85  0.00  0.00  0.00  0.31  0.31  0.31   0.4  0.00  0.00  0.00  0.00
 1982 114   200   190  16.4 -20.0 27.15 10.97  0.63  1.85 110.8  1.16 0.140  1.30  2018     9   298  1710   438  1272     0  0.00     0     0  1111     0 69.85 68.59  65.0     0     0  1321   265  1.02  0.77  59.3  27.4  1.96  0.00  0.00  0.00  0.32  0.32  0.32   0.3  0.00  0.00  0.00  0.00
 1982 115   201   191  13.1 -20.0 27.15 11.11  0.64  1.80  68.7  1.21 0.147  1.36  2077     9   305  1762   461  1301     0  0.00     0     0  1132     0 70.86 70.98  64.2     0     0  1321   263  1.03  0.78  58.8  46.1  3.43  0.00  0.00  0.00  0.34  0.34  0.34   0.3  0.00  0.00  0.00  0.00
 1982 116   202   192  14.1 -20.0 30.44 11.26  0.66  1.78 147.2  1.26 0.155  1.42  2201     9   323  1869   485  1384     0  0.00     0     0  1205     0 74.08 73.42  64.5     0     0  1296   261  1.04  0.78  56.2  19.6  1.55  0.00  0.00  0.00  0.35  0.35  0.35   0.3  0.00  0.00  0.00  0.00
 1982 117   203   193  10.6 -20.0 30.94 11.37  0.67  1.74  43.6  1.30 0.160  1.46  2232     9   326  1897   502  1395     0  0.00     0     0  1210     0 76.53 76.00  63.8     0     0  1277   259  1.05  0.78  55.8  70.5  4.87  0.00  0.00  0.00  0.36  0.36  0.36   0.4  0.00  0.00  0.00  0.00
 1982 118   204   194   8.4 -20.0 31.33 11.46  0.67  1.76   8.8  1.30 0.161  1.46  2233     9   324  1899   506  1393     0  0.00     0     0  1209     0 78.50 78.61  63.6     0     0  1263   257  1.06  0.78  59.6  99.9 15.00  0.00  0.00  0.00  0.35  0.35  0.35   0.9  0.00  0.16  0.00  0.00
 1982 119   205   195  10.0 -20.0 31.79 11.57  0.68  1.82  41.4  1.34 0.167  1.50  2262     9   327  1926   522  1404     0  0.00     0     0  1213     0 80.86 81.21  63.0     0     0  1246   256  1.07  0.78  74.8  99.9  7.98  0.00  0.00  0.00  0.33  0.33  0.33   0.7  0.00  0.00  0.00  0.00
 1982 120   206   196  13.9 -20.0 32.44 11.71  0.69  1.87  66.7  1.38 0.175  1.56  2313     9   333  1971   544  1427     0  0.00     0     0  1224     0 84.19 83.82  62.1     0     0  1223   254  1.08  0.79  73.8  59.6  6.71  0.00  0.00  0.00  0.31  0.31  0.31   1.5  0.00  0.00  0.00  0.00
 1982 121   207   197  16.1 -20.0 33.20 11.88  0.71  1.98  93.8  1.44 0.185  1.63  2387     9   342  2036   573  1464     0  0.00     0     0  1246     0 88.15 86.49  61.2     0     0  1197   252  1.09  0.79  71.8  41.3  4.77  0.00  0.00  0.00  0.27  0.27  0.27   1.1  0.00  0.00  0.00  0.00
 1982 122   208   198  18.0 -20.0 34.04 12.07  0.72  2.09 128.6  1.52 0.198  1.71  2493     9   354  2129   607  1522     0  0.00     0     0  1284     0 92.67 89.22  60.3     0     0  1169   250  1.11  0.80  69.3  29.5  3.56  0.00  0.00  0.00  0.23  0.23  0.23   0.7  0.00  0.00  0.00  0.00
 1982 123   209   199  22.0 -20.0 35.07 12.30  0.74  2.15 153.2  1.59 0.213  1.80  2618     9   369  2240   645  1595     0  0.00     0     0  1333     0 98.31 92.06  59.5     0     0  1136   247  1.13  0.81  66.6  22.6  2.89  0.00  0.00  0.00  0.21  0.21  0.21   0.5  0.00  0.13  0.00  0.00
 1982 124   210   200  24.5 -20.0 36.21 12.56  0.76  2.16 183.3  1.66 0.227  1.88  2770     9   387  2374   680  1694     0  0.00     0     0  1409     0 104.8 95.01  59.4     0     0  1102   244  1.15  0.81  63.4  17.3  2.38  0.00  0.00  0.00  0.21  0.21  0.21   0.4  0.00  0.30  0.00  0.00
 1982 125   211   201  18.0 -20.0 37.06 12.75  0.76  2.17  43.5  1.69 0.232  1.92  2796     9   389  2398   700  1698     0  0.00     0     0  1409     0 109.6 98.11  58.7     0     0  1077   241  1.16  0.82  63.1  82.0  9.25  0.00  0.00  0.00  0.20  0.20  0.20   0.8  0.00  0.00  0.00  0.00
 1982 126   212   202  10.9 -20.0 37.57 12.86  0.77  2.25 121.6  1.73 0.242  1.97  2899     9   399  2491   724  1767     0  0.00     0     0  1462     0 112.5 101.2  58.7     0     0  1063   239  1.17  0.82  93.5  53.9  3.96  0.00  0.00  0.00  0.17  0.17  0.17   0.5  0.00  0.00  0.00  0.00
 1982 127   213   203  14.4 -20.0 38.24 13.02  0.78  2.26 231.0  1.78 0.255  2.04  3102     9   420  2673   753  1920     0  0.00     0     0  1589     0 116.5 104.4  59.5     0     0  1044   237  1.18  0.82  92.3  25.0  3.18  0.00  0.00  0.00  0.17  0.17  0.17   0.9  0.00  0.00  0.00  0.00
 1982 128   214   204  20.5 -20.0 39.20 13.23  0.80  2.33 246.1  1.86 0.275  2.14  3315     9   442  2863   794  2069     0  0.00     0     0  1698     0 122.1 107.8  59.3     0     0  1019   235  1.20  0.83  87.9  20.4  2.86  0.00  0.00  0.00  0.15  0.15  0.15   0.7  0.00  0.04  0.00  0.00
 1982 129   215   205  22.5 -20.0 40.29 13.47  0.81  2.37 230.2  1.94 0.295  2.24  3511     9   461  3041   837  2204     0  0.00     0     0  1792     0 128.3 111.3  58.9     0     0   994   232  1.22  0.83  83.9  20.6  3.17  0.00  0.00  0.00  0.13  0.13  0.13   0.6  0.00  0.17  0.00  0.00
 1982 130   216   206  22.5 -20.0 41.47 13.47  0.80  2.41 174.2  1.91 0.319  2.23  3662     9   474  3178   830  2338     0  0.00     0     0  1832    10 128.3 115.0  57.8     0     0   969   230  1.23  0.84  81.2  26.8  4.46  0.00  0.00  0.00  0.11  0.11  0.11   1.2  0.00  0.17  0.00  0.00
 1982 131   217   207  22.0 -20.0 42.63 13.47  0.80  2.51 223.2  1.88 0.350  2.23  3859     9   491  3359   824  2516     0  0.00     0     0  1886    19 128.3 118.8  56.5     0     0   947   228  1.25  0.85  78.8  21.2  3.73  0.00  0.00  0.00  0.08  0.08  0.08   1.1  0.00  0.13  0.00  0.00
 1982 132   218   208  18.9 -20.0 43.62 13.47  0.79  2.60 105.7  1.85 0.364  2.21  3948     9   496  3443   819  2596     0  0.00     0     0  1910    27 128.3 122.7  55.9     0     0   928   226  1.27  0.86 104.7  66.6  9.08  0.00  0.00  0.00  0.04  0.04  0.04   2.0  0.00  0.00  0.00  0.00
 1982 133   219   209  20.0 -20.0 44.68 13.47  0.79  2.68 114.9  1.82 0.380  2.20  4045     9   501  3534   813  2686     0  0.00     0     0  1937    36 128.3 126.7  55.4     0     0   909   224  1.28  0.87 103.6  60.9  8.47  0.00  0.00  0.00  0.01  0.01  0.01   2.0  0.00  0.00  0.00  0.00
 1982 134   220   210  17.8 -20.0 45.61 13.47  0.78  2.72 124.3  1.80 0.398  2.19  4152     9   506  3636   808  2785     0  0.00     0     0  1967    43 128.3 130.7  54.7     0     0   893   222  1.30  0.87 102.9  59.1  8.36  0.00  0.00  0.00  0.00  0.00  0.00   2.0  0.00  0.00  0.00  0.00
 1982 135   221   211  17.8 -20.0 46.54 13.47  0.78  2.72 283.4  1.77 0.440  2.21  4410     9   523  3878   803  3025     0  0.00     0     0  2039    50 128.3 134.7  53.3     0     0   878   221  1.31  0.88 110.1  27.5  3.67  0.00  0.00  0.00  0.00  0.00  0.00   2.0  0.00  0.00  0.00  0.00
 1982 136   222   212  19.5 -20.0 47.57 13.47  0.77  2.72 120.8  1.75 0.457  2.20  4514     9   527  3977   796  3123     0  0.00     0     0  2068    58 128.3 138.9  52.8     0     0   862   219  1.33  0.88 110.5  63.3  8.67  0.00  0.00  0.00  0.00  0.00  0.00   2.0  0.00  0.00  0.00  0.00
 1982 137   223   213  19.5 -20.0 48.59 13.47  0.77  2.72 173.6  1.72 0.482  2.20  4668     9   535  4124   790  3268     0  0.00     0     0  2112    65 128.3 143.1  52.0     0     0   846   218  1.35  0.89 112.7  44.8  6.05  0.00  0.00  0.00  0.00  0.00  0.00   2.0  0.00  0.00  0.00  0.00
 1982 138   224   214  20.3 -20.0 49.66 13.47  0.76  2.72 262.4  1.69 0.522  2.22  4907     9   547  4351   784  3387     0  0.00   107   107  2179    73 128.3 147.4  50.9     0     0   831   216  1.36  0.89 109.9  28.1  3.94  0.00  0.00  0.00  0.00  0.00  0.00   2.0  0.00  0.02  0.00  0.00
 1982 139   225   215  23.6 -20.0 53.43 13.47  0.76  2.72 244.0  1.66 0.558  2.22  5128     9   558  4561   775  3370     0  0.00   333   206  2242    82 128.3 151.8  50.0     0     0   814   214  1.38  0.90 105.5  27.4  4.09  0.00  0.00  0.00  0.00  0.00  0.00   2.0  0.00  0.24  0.00  0.00
 1982 140   226   216  21.1 -20.0 57.65 13.47  0.75  2.72 145.2  1.64 0.580  2.22  5256     9   561  4686   771  3337     0  0.00   489   267  2278    89 128.3 156.3  49.5     0     0   800   213  1.40  0.92 103.3  47.6  7.39  0.00  0.00  0.00  0.00  0.00  0.00   2.0  0.00  0.07  0.00  0.00
 1982 141   227   217  18.0 -20.0 63.14 13.47  0.75  2.72 213.8  1.62 0.613  2.23  5453     9   565  4879   768  3394     0  0.00   623   358  2335    95 128.3 160.8  48.8     0     0   788   211  1.41  0.93 123.9  41.3  5.37  0.00  0.00  0.00  0.00  0.00  0.00   2.0  0.00  0.00  0.00  0.00
 1982 142   228   218  16.1 -20.0 70.19 13.47  0.74  2.72 171.9  1.60 0.641  2.24  5611     9   565  5037   765  3411     0  0.00   761   432  2381   100 128.3 165.3  48.2     0     0   778   209  1.43  0.95 121.8  52.5  6.98  0.00  0.00  0.00  0.00  0.00  0.00   2.0  0.00  0.00  0.00  0.00
 1982 143   229   219  18.0 -20.0 71.58 13.47  0.74  2.72 233.8  1.58 0.679  2.26  5831     9   566  5256   760  3484     2  0.00   905   537  2444   105 128.3 169.8  47.5 12837 .0000   768   208  1.44  0.97 117.7  35.6  4.90  0.00  0.00  0.00  0.00  0.00  0.00   2.0  0.00  0.00  0.00  0.00
 1982 144   230   220  18.7 -20.0 73.01 13.47  0.74  2.72  92.6  1.56 0.678  2.24  5912     9   562  5340   755  3467    19  0.00   989   553  2515   111 128.3 174.3  48.3 12837 .0001   758   207  1.46  0.98 116.6  89.4 12.41  0.00  0.00  0.00  0.00  0.00  0.00   2.0  0.00  0.00  0.00  0.00
 1982 145   231   221  20.0 -20.0 74.55 13.47  0.73  2.72 137.0  1.54 0.676  2.22  6036     9   559  5467   750  3539    53  0.01  1009   588  2612   117 128.3 178.8  49.3 12837 .0004   747   205  1.47  0.98 131.9  66.4  8.10  0.00  0.00  0.00  0.00  0.00  0.00   2.0  0.00  0.00  0.00  0.00
 1982 146   232   222  16.4 -20.0 75.81 13.47  0.73  2.72 251.4  1.52 0.675  2.20  6275     9   558  5708   747  3693    95  0.02  1051   630  2813   122 128.3 183.3  51.2 12837 .0007   738   204  1.49  0.98 149.8  43.9  4.76  0.00  0.00  0.00  0.00  0.00  0.00   2.0  0.00  0.00  0.00  0.00
 1982 147   233   223  18.4 -20.0 77.22 13.47  0.72  2.72 277.7  1.51 0.673  2.18  6539     9   557  5973   742  3853   156  0.03  1096   690  3022   127 128.3 187.8  53.1 12837 .0012   730   203  1.50  0.98 146.8  36.9  4.12  0.00  0.00  0.00  0.00  0.00  0.00   2.0  0.00  0.00  0.00  0.00
 1982 148   234   224  23.3 -20.0 79.02 13.47  0.72  2.72 152.3  1.48 0.672  2.15  6677     9   554  6114   736  3888   252  0.04  1106   786  3071   133 128.3 192.2  53.6 12837 .0020   719   201  1.52  0.98 136.2  57.2  6.88  0.00  0.00  0.00  0.00  0.00  0.00   2.0  0.00  0.22  0.00  0.00
 1982 149   235   225  21.4 -20.0 80.17 13.47  0.71  2.72 223.2  1.46 0.670  2.13  6887     9   552  6325   731  3966   361  0.06  1128   896  3177   139 128.3 196.7  54.5 12837 .0028   710   200  1.54  0.98 155.3  46.3  4.86  0.00  0.00  0.00  0.00  0.00  0.00   2.0  0.00  0.09  0.00  0.00
 1982 150   236   226  20.5 -20.0 80.58 13.47  0.71  2.72 170.3  1.45 0.669  2.12  7044     9   550  6484   732  3995   480  0.07  1136  1015  3218   142 128.3 201.1  54.9 12837 .0037   702   198  1.56  0.98 148.4  58.9  6.44  0.00  0.00  0.00  0.00  0.00  0.00   1.6  0.00  0.04  0.00  0.00
 1982 151   237   227  17.8 -20.0 80.94 13.47  0.71  2.72 137.9  1.44 0.667  2.11  7170     9   547  6613   733  4012   583  0.09  1140  1118  3246   145 128.3 205.5  55.1 12837 .0045   695   197  1.57  0.98 153.7  80.1  8.43  0.00  0.00  0.00  0.00  0.00  0.00   1.4  0.00  0.00  0.00  0.00
 1982 152   238   228  12.8 -20.0 81.19 13.47  0.71  2.72 273.1  1.44 0.667  2.10  7432     9   546  6877   734  4170   643  0.09  1183  1177  3450   147 128.3 209.9  56.7 12837 .0050   690   196  1.58  0.98 139.0  40.2  4.65  0.00  0.00  0.00  0.00  0.00  0.00   2.0  0.00  0.00  0.00  0.00
 1982 153   239   229  15.2 -20.0 81.50 13.47  0.70  2.72 103.7  1.43 0.666  2.10  7525     9   543  6973   734  4178   727  0.10  1185  1261  3464   149 128.3 214.2  56.8 12837 .0057   685   195  1.59  0.98 137.6  99.9 11.85  0.00  0.00  0.00  0.00  0.00  0.00   1.1  0.00  0.00  0.00  0.00
 1982 154   240   230  15.0 -20.0 81.80 13.47  0.70  2.72  71.8  1.42 0.664  2.09  7587     9   540  7038   735  4164   808  0.11  1181  1343  3448   151 128.3 218.6  56.7 12837 .0063   680   194  1.61  0.98 137.8  99.9 15.00  0.00  0.00  0.00  0.00  0.00  0.00   1.1  0.00  0.00  0.00  0.00
 1982 155   241   231  17.0 -20.0 82.14 13.47  0.70  2.72 136.6  1.42 0.663  2.08  7713     9   537  7167   735  4185   907  0.13  1187  1441  3480   153 128.3 222.9  57.0 12837 .0071   675   193  1.62  0.98 138.0  74.0  8.50  0.00  0.00  0.00  0.00  0.00  0.00   0.5  0.00  0.00  0.00  0.00
 1982 156   242   232  17.8 -20.0 82.49 13.47  0.70  2.70 201.1  1.41 0.662  2.07  7902     9   535  7358   735  4253  1009  0.14  1205  1544  3569   155 128.3 227.2  57.6 12837 .0079   669   192  1.63  0.98 134.4  47.3  5.56  0.00  0.00  0.00  0.01  0.01  0.01   0.8  0.00  0.00  0.00  0.00
 1982 157   243   233  25.5 -20.0 83.00 13.47  0.70  2.57 167.9  1.40 0.660  2.06  8056     9   533  7514   734  4258  1157  0.15  1207  1692  3579   159 128.3 231.5  57.7 12837 .0090   661   191  1.66  0.98 131.0  45.4  5.46  0.00  0.00  0.00  0.00  0.00  0.00   0.2  0.05  0.37  0.00  0.00
 1982 158   244   234  20.2 -20.0 83.41 13.47  0.69  2.37 210.4  1.40 0.659  2.05  8254     9   531  7714   738  4318  1275  0.17  1223  1810  3662   160 128.3 235.7  58.3 12837 .0099   656   189  1.67  0.98 139.5  39.1  4.39  0.00  0.00  0.00  0.13  0.13  0.13   0.3  0.00  0.02  0.00  0.00
 1982 159   245   235  25.8 -20.0 83.93 13.47  0.68  1.95 138.7  1.35 0.657  2.00  8380     9   528  7842   716  4307  1424  0.18  1223  1959  3652   172 128.3 240.0  58.5 12837 .0111   649   188  1.69  0.98 135.7  42.8  4.93  0.00  0.00  0.00  0.22  0.22  0.22   0.4  0.08  0.39  0.00  0.00
 1982 160   246   236  22.8 -20.0 84.38 13.47  0.65  1.79 151.1  1.23 0.656  1.89  8519     9   526  7984   663  4330  1556  0.19  1236  2091  3687   199 128.3 244.2  59.2 12837 .0121   643   186  1.71  0.98 149.5  42.3  4.40  0.00  0.00  0.00  0.34  0.34  0.34   0.3  0.00  0.18  0.00  0.00
 1982 161   247   237  16.4 -20.0 84.71 13.47  0.60  1.48 140.3  1.07 0.655  1.73  8649     9   524  8117   580  4386  1651  0.20  1262  2186  3762   237 128.3 248.4  60.4 12837 .0129   639   185  1.73  0.98 142.4  40.5  4.40  0.00  0.00  0.00  0.45  0.45  0.45   0.3  0.00  0.00  0.00  0.00
 1982 162   248   238  18.0 -20.0 85.07 13.47  0.52  1.28  45.6  0.87 0.653  1.53  8685     9   520  8156   474  4369  1756  0.22  1272  2290  3744   285 128.3 252.6  61.2 12837 .0137   634   184  1.74  0.98 140.7  99.9 11.50  0.00  0.00  0.00  0.53  0.53  0.53   0.4  0.00  0.00  0.00  0.00
 1982 163   249   239  19.8 -20.0 85.46 13.47  0.27  1.06  63.3  0.37 0.652  1.02  8738     9   517  8212   203  4416  1870  0.23  1321  2405  3803   402 128.3 256.8  64.0 12837 .0146   629   183  1.76  0.98 136.5  58.3  6.52  0.00  0.00  0.00  0.61  0.61  0.61   0.6  0.00  0.00  0.00  0.00
 1982 164   250   240  20.9 -20.0 85.88 13.47  0.00  0.88  19.8  0.00 0.651  0.65  8747     9   513  8225     0  4401  1991  0.24  1344  2526  3782   489 128.3 260.9  65.8 12837 .0155   624   -99  1.77  0.98 135.8  99.9 15.00  0.00  0.00  0.00  0.68  0.68  0.68   0.4  0.00  0.06  0.00  0.00
 1982 165   251   241  23.9 -20.0 86.36 13.47  0.00  0.00   0.0  0.00 0.649  0.65  8743     9   509  8225     0  4292  2130  0.26  1315  2664  3643   489 128.3 265.0  65.0 12837 .0166   618   -99  1.77  0.98 135.6  99.9 15.00  0.00  0.00  0.00  0.00  0.00  0.00   0.3  0.00  0.26  0.00  0.00
 1982 166   252   242  22.5 -20.0 86.81 13.47  0.00  0.00   0.0  0.00 0.648  0.65  8739     9   504  8225     0  4189  2260  0.27  1287  2795  3513   489 128.3 269.1  64.1 12837 .0176   612   -99  1.77  0.98 153.3  99.9 15.00  0.00  0.00  0.00  0.00  0.00  0.00   0.2  0.00  0.17  0.00  0.00
 1982 167   253   243  18.6 -20.0 87.18 13.47  0.00  0.00   0.0  0.00 0.647  0.65  8735     9   500  8225     0  4104  2368  0.29  1264  2902  3405   489 128.3 273.1  63.4 12837 .0184   607   -99  1.77  0.98 148.6  99.9 15.00  0.00  0.00  0.00  0.00  0.00  0.00   0.4  0.00  0.00  0.00  0.00
 1982 168   254   244  21.1 -20.0 87.60 13.47  0.00  0.00   0.0  0.00 0.645  0.65  8731     9   496  8225     0  4027  2467  0.30  1242  3002  3306   489 128.3 277.1  62.7 12837 .0192   601   -99  1.77  0.98 143.3  99.9 15.00  0.00  0.00  0.00  0.00  0.00  0.00   0.2  0.00  0.07  0.00  0.00
 1982 169   255   245  21.1 -20.0 88.02 13.47  0.00  0.00   0.0  0.00 0.644  0.64  8727     9   492  8225     0  3982  2523  0.31  1230  3058  3250   489 128.3 281.1  62.3 12837 .0197   595   -99  1.77  0.98 139.9  99.9 15.00  0.00  0.00  0.00  0.00  0.00  0.00   0.4  0.00  0.07  0.00  0.00
 1982 170   256   246  19.2 -20.0 88.41 13.47  0.00  0.00   0.0  0.00 0.640  0.64  8723     9   489  8225     0  3944  2555  0.31  1226  3090  3218   499 128.3 285.0  62.2 12837 .0199   590   -99  1.77  0.98 139.1  99.9 15.00  0.00  0.00  0.00  0.00  0.00  0.00   0.2  0.00  0.00  0.00  0.00
 1982 171   257   247  22.8 -19.7 88.86 13.47  0.00  0.00   0.0  0.00 0.636  0.64  8719     9   485  8225     0  3878  2620  0.32  1216  3155  3153   511 128.3 288.9  61.9 12837 .0204   584   -99  1.77  0.98 138.3  99.9 15.00  0.00  0.00  0.00  0.00  0.00  0.00   0.4  0.00  0.18  0.00  0.00
 1982 172   258   248  22.2 -16.9 89.31 13.47  0.00  0.00   0.0  0.00 0.632  0.63  8715     9   481  8225     0  3829  2664  0.32  1209  3199  3109   523 128.3 292.8  61.7 12837 .0208   578   -99  1.77  0.98 137.6  99.9 15.00  0.00  0.00  0.00  0.00  0.00  0.00   0.3  0.00  0.15  0.00  0.00
 1982 173   259   249  20.8 -14.4 89.72 13.47  0.00  0.00   0.0  0.00 0.628  0.63  8711     9   477  8225     0  3793  2693  0.33  1206  3228  3079   533 128.3 296.6  61.6 12837 .0210   573   -99  1.77  0.98 148.8  99.9 15.00  0.00  0.00  0.00  0.00  0.00  0.00   0.2  0.00  0.06  0.00  0.00
 1982 174   260   250  21.7 -12.1 90.40 13.47  0.00  0.00   0.0  0.00 0.624  0.62  8707     9   473  8225     0  3725  2762  0.34  1194  3297  3010   544 128.3 300.5  61.2 12837 .0215   567   -99  1.77  0.98 145.7  99.9 15.00  0.00  0.00  0.00  0.00  0.00  0.00   0.4  0.00  0.11  0.00  0.00

*DSSAT Cropping System Model Ver. 4.5.1.023 -Stub         OCT 13, 2014; 10:45:28
                                                                                
*RUN   2        : DRYLAND  - 60 KG N/HA     CSCER045 KSAS8101    2              
 MODEL          : CSCER045 - Wheat                                              
 EXPERIMENT     : KSAS8101 WH                                                   
 DATA PATH      :                                                               
 TREATMENT  2   : DRYLAND  - 60 KG N/HA     CSCER045                            
  
@YEAR DOY   DAS   DAP TMEAN TKILL  GSTD  L#SD PARID PARUD  AWAD  LAID  SAID  CAID  TWAD SDWAD  RWAD  CWAD  LWAD  SWAD  HWAD  HIAD CHWAD  EWAD RSWAD SNWPD SNW0D SNW1D  RS%D  H#AD  HWUD  T#AD  SLAD  RDPD  PTFD  SWXD WAVRD WUPRD  WFTD  WFPD  WFGD  NFTD  NFPD  NFGD NUPRD  TFPD  TFGD VRNFD DYLFD
 1981 289    10     0  12.8  -9.7  0.00  0.00  0.00  0.00   0.0  0.00 0.000  0.00    46    46     0     0     0     0     0  0.00     0     0     0     0     0     0   0.0     0     0   162   -99  0.05  0.00   7.4  99.9  1.00  0.00  0.00  0.00  0.00  0.00  0.00   0.0  0.00  0.00  1.00  0.00
 1981 290    11     1  16.1  -7.4  5.58  0.00  0.00  0.00   0.0  0.00 0.000  0.00    46    46     0     0     0     0     0  0.00     0     0     0     0     0     0   0.0     0     0   162   -99  0.05  0.00   8.7  99.9  1.00  0.00  0.00  0.00  0.00  0.00  0.00   0.0  0.00  0.00  1.00  0.00
 1981 291    12     2   9.4  -7.2  6.54  0.00  0.00  0.00   0.0  0.00 0.000  0.00    46    45     1     0     0     0     0  0.00     0     0     0     0     0     0   0.0     0     0   162   -99  0.07  0.00   9.9  99.9  1.00  0.00  0.00  0.00  0.00  0.00  0.00   0.0  0.00  0.06  0.98  0.00
 1981 292    13     3  12.2  -6.0  7.81  0.00  0.00  0.00   0.0  0.00 0.000  0.00    46    44     2     0     0     0     0  0.00     0     0     0     0     0 .0058   0.0     0     0   162   -99  0.09  0.00  11.8  99.9  1.00  0.00  0.00  0.00  0.00  0.00  0.00   2.0  0.00  0.00  0.98  0.00
 1981 293    14     4  17.5  -6.0  9.69  0.00  0.00  0.00   0.0  0.00 0.000  0.00    46    43     3     0     0     0     0  0.00     0     0     0     0     0 .0190   0.0     0     0   162   -99  0.11  0.00  14.9  99.9  1.00  0.00  0.00  0.00  0.00  0.00  0.00   2.0  0.00  0.00  0.98  0.00
 1981 294    15     5  11.7  -6.0 10.00  0.00  0.00  0.00   0.0  0.00 0.000  0.00    46    42     4     0     0     0     0  0.00     0     0     0     0     0 .0428   0.0     0     0   162   -99  0.13  0.00  16.8  99.9  1.00  0.00  0.00  0.00  0.00  0.00  0.00   2.0  0.00  0.00  0.97  0.00
 1981 295    16     6   6.2  -7.1 10.08  0.08  0.00  0.00   0.0  0.00 0.000  0.00    46    41     4     1     0     0     0  0.00     0     0     0     0     0 .0736   0.0     0     0   162   400  0.14  0.75  17.4  99.9  1.00  0.00  0.00  0.00  0.00  0.00  0.00   2.0  0.00  0.38  0.95  0.50
 1981 296    17     7   1.9  -8.5 10.11  0.11  0.00  1.06   0.1  0.00 0.000  0.00    46    41     4     1     0     0     0  0.00     0     0     0     0     0 0.108  11.1     0     0   162   397  0.14  0.75  17.1  99.9 15.00  0.00  0.00  0.00  0.00  0.00  0.00   2.0  0.61  0.81  0.92  0.50
 1981 297    18     8   6.1  -9.5 10.19  0.19  0.00  2.70   0.1  0.00 0.000  0.00    46    40     5     1     1     1     0  0.00     0     0     0     0     0 0.143  11.2     0     0   162   397  0.15  0.75  17.8  99.9 15.00  0.00  0.00  0.00  0.01  0.01  0.01   2.0  0.00  0.39  0.90  0.51
 1981 298    19     9   8.4 -10.0 10.30  0.30  0.01  2.70   0.2  0.01 0.001  0.01    46    38     5     3     2     1     0  0.00     0     0     0     0     0 0.182  12.1     0     0   162   397  0.16  0.75  21.5  99.9 15.00  0.00  0.00  0.00  0.01  0.01  0.01   2.0  0.00  0.16  0.88  0.51
 1981 299    20    10   7.8 -10.5 10.40  0.40  0.01  2.70   0.9  0.01 0.001  0.01    47    37     6     4     2     2     0  0.00     0     0     1     0     0 0.224  23.6     0     0   162   397  0.17  0.75  22.8  99.9 14.83  0.00  0.00  0.00  0.01  0.01  0.01   2.0  0.00  0.22  0.86  0.52
 1981 300    21    11  13.7 -10.4 10.58  0.58  0.01  2.70   1.3  0.01 0.001  0.02    48    34     7     8     4     4     0  0.00     0     0     2     0     0 0.271  27.0     0     0   162   397  0.19  0.75  24.4  99.9  9.83  0.00  0.00  0.00  0.01  0.01  0.01   2.0  0.00  0.00  0.86  0.52
 1981 301    22    12  16.2 -10.2 10.79  0.79  0.02  2.71   2.0  0.02 0.002  0.02    50    31     8    12     5     6     0  0.00     0     0     4     0     0 0.324  30.6     0     0   162   397  0.21  0.75  26.4  99.9  7.11  0.00  0.00  0.00  0.00  0.00  0.00   2.0  0.00  0.00  0.86  0.53
 1981 302    23    13  17.5 -10.0 11.02  1.02  0.02  2.72   3.0  0.03 0.003  0.03    53    27     9    17     7     9     0  0.00     0     0     6     0     0 0.384  34.8     0     0   162   396  0.23  0.75  28.7  99.9  5.31  0.00  0.00  0.00  0.00  0.00  0.00   1.9  0.00  0.00  0.86  0.53
 1981 303    24    14  16.1  -9.9 11.23  1.23  0.03  2.72   1.0  0.04 0.003  0.04    53    23    10    20     9    11     0  0.00     0     0     7     0     0 0.454  32.0     0     0   162   394  0.25  0.75  30.9  99.9 15.00  0.00  0.00  0.00  0.00  0.00  0.00   1.7  0.00  0.00  0.86  0.53
 1981 304    25    15  13.9  -9.8 11.42  1.42  0.04  2.72   0.8  0.04 0.004  0.05    54    20    10    24    11    13     0  0.00     0     0     7     0     0 0.531  30.1     0     0   162   393  0.27  0.75  33.4  99.9 15.00  0.00  0.00  0.00  0.00  0.00  0.00   2.0  0.00  0.00  0.86  0.54
[...]
 1982 107   193   183  10.0 -20.0 27.70 10.16  0.61  2.72 208.2  1.11 0.130  1.24  1671     9   233  1429   404  1025     0  0.00     0     0   872     0 62.87 56.81  61.0     0     0  1410   275  0.96  0.80  78.0  32.4  2.15  0.00  0.00  0.00  0.00  0.00  0.00   2.0  0.00  0.00  0.00  0.27
 1982 108   194   184  12.2 -20.0 28.11 10.28  0.63  2.72 202.1  1.18 0.139  1.32  1853     9   256  1589   433  1155     0  0.00     0     0   991     0 64.24 58.68  62.4     0     0  1477   273  0.97  0.80  75.6  30.1  2.27  0.00  0.00  0.00  0.00  0.00  0.00   1.6  0.00  0.00  0.00  0.26
 1982 109   195   185  15.3 -20.0 28.63 10.44  0.66  2.72 203.8  1.28 0.152  1.43  2037     9   278  1750   472  1277     0  0.00     0     0  1098     0 65.97 60.72  62.8     0     0  1560   271  0.98  0.80  76.0  28.8  2.35  0.00  0.00  0.00  0.00  0.00  0.00   1.2  0.00  0.00  0.00  0.26
 1982 110   196   186   6.7 -20.0 28.63 10.51  0.67  2.72 221.3  1.31 0.155  1.46  2238     9   302  1926   485  1441     0  0.00     0     0  1259     0 66.64 62.95  65.4     0     0  1560   270  0.99  0.80 119.9  50.7  3.46  0.00  0.00  0.00  0.00  0.00  0.00   2.0  0.00  0.33  0.00  0.00
 1982 111   197   187   7.0 -20.0 28.63 10.59  0.68  2.72 205.6  1.34 0.159  1.50  2424     9   324  2090   498  1592     0  0.00     0     0  1406     0 67.35 65.37  67.3     0     0  1560   269  0.99  0.80 107.7  47.4  3.91  0.00  0.00  0.00  0.00  0.00  0.00   2.0  0.00  0.30  0.00  0.00
 1982 112   198   188   8.6 -20.0 28.63 10.68  0.69  2.72 244.2  1.39 0.166  1.55  2645     9   351  2285   518  1767     0  0.00     0     0  1575     0 68.22 67.96  68.9     0     0  1560   268  1.00  0.80 101.3  36.1  3.40  0.00  0.00  0.00  0.00  0.00  0.00   2.0  0.00  0.14  0.00  0.00
 1982 113   199   189  11.7 -20.0 28.63 10.80  0.71  2.72 213.8  1.46 0.176  1.64  2838     9   373  2456   549  1907     0  0.00     0     0  1702     0 69.41 70.77  69.3     0     0  1560   266  1.01  0.80  97.7  36.7  3.87  0.00  0.00  0.00  0.00  0.00  0.00   2.0  0.00  0.00  0.00  0.00
 1982 114   200   190  16.4 -20.0 28.63 10.97  0.74  2.72 191.6  1.57 0.190  1.76  3010     9   392  2609   593  2016     0  0.00     0     0  1793     0 71.08 73.75  68.7     0     0  1560   264  1.02  0.81  94.6  36.4  4.22  0.00  0.00  0.00  0.00  0.00  0.00   2.0  0.00  0.00  0.00  0.00
 1982 115   201   191  13.1 -20.0 28.63 11.11  0.75  2.72 122.2  1.65 0.202  1.85  3119     9   403  2707   630  2076     0  0.00     0     0  1840     0 72.42 76.89  68.0     0     0  1560   262  1.03  0.81  93.5  61.2  7.55  0.00  0.00  0.00  0.00  0.00  0.00   2.0  0.00  0.00  0.00  0.00
 1982 116   202   192  14.1 -20.0 30.44 11.26  0.77  2.72 263.7  1.74 0.216  1.95  3349     9   430  2910   669  2241     0  0.00     0     0  1987     0 76.56 80.11  68.3     0     0  1532   260  1.04  0.81  89.3  26.0  3.45  0.00  0.00  0.00  0.00  0.00  0.00   2.0  0.00  0.00  0.00  0.00
 1982 117   203   193  10.6 -20.0 30.94 11.37  0.78  2.72  79.8  1.80 0.226  2.03  3411     9   435  2967   699  2267     0  0.00     0     0  2002     0 79.71 83.55  67.5     0     0  1512   257  1.05  0.81 127.4  99.9 13.35  0.00  0.00  0.00  0.00  0.00  0.00   2.0  0.00  0.00  0.00  0.00
 1982 118   204   194   8.4 -20.0 31.33 11.46  0.79  2.72  16.0  1.81 0.228  2.04  3416     9   433  2973   708  2265     0  0.00     0     0  1999     0 82.25 87.03  67.3     0     0  1497   256  1.06  0.82 125.2  99.9 15.00  0.00  0.00  0.00  0.00  0.00  0.00   2.0  0.00  0.16  0.00  0.00
 1982 119   205   195  10.0 -20.0 31.79 11.57  0.80  2.72  72.7  1.87 0.237  2.11  3471     9   438  3024   735  2289     0  0.00     0     0  2010     0 85.31 90.50  66.5     0     0  1478   255  1.07  0.82 128.7  99.9 14.97  0.00  0.00  0.00  0.00  0.00  0.00   2.0  0.00  0.00  0.00  0.00
 1982 120   206   196  13.9 -20.0 32.44 11.71  0.81  2.72 113.8  1.96 0.251  2.21  3562     9   447  3106   773  2333     0  0.00     0     0  2034     0 89.65 94.00  65.5     0     0  1453   253  1.08  0.82 121.6  83.1  8.79  0.00  0.00  0.00  0.00  0.00  0.00   2.0  0.00  0.00  0.00  0.00
 1982 121   207   197  16.1 -20.0 33.20 11.88  0.82  2.72 151.1  2.05 0.267  2.31  3686     9   459  3218   816  2402     0  0.00     0     0  2078     0 94.82 97.57  64.6     0     0  1425   251  1.09  0.82 112.9  54.9  6.39  0.00  0.00  0.00  0.00  0.00  0.00   2.0  0.00  0.00  0.00  0.00
 1982 122   208   198  18.0 -20.0 34.04 12.07  0.84  2.72 195.2  2.15 0.285  2.44  3849     9   476  3364   864  2499     0  0.00     0     0  2147     0 100.7 101.2  63.8     0     0  1394   249  1.11  0.82 108.4  39.0  4.86  0.00  0.00  0.00  0.00  0.00  0.00   2.0  0.00  0.00  0.00  0.00
 1982 123   209   199  22.0 -20.0 35.07 12.30  0.85  2.72 225.0  2.26 0.306  2.56  4036     9   496  3532   917  2614     0  0.00     0     0  2229     0 108.1 105.1  63.1     0     0  1359   246  1.13  0.83 105.0  30.2  4.03  0.00  0.00  0.00  0.00  0.00  0.00   1.9  0.00  0.13  0.00  0.00
 1982 124   210   200  24.5 -20.0 36.21 12.56  0.86  2.72 265.8  2.35 0.325  2.67  4260     9   519  3732   966  2766     0  0.00     0     0  2350     0 116.4 109.0  63.0     0     0  1321   243  1.15  0.83 100.8  23.4  3.38  0.00  0.00  0.00  0.00  0.00  0.00   2.0  0.00  0.30  0.00  0.00
 1982 125   211   201  18.0 -20.0 37.06 12.75  0.87  2.72  62.3  2.39 0.334  2.73  4298     9   521  3768   996  2772     0  0.00     0     0  2349     0 122.7 113.2  62.3     0     0  1294   240  1.16  0.84 100.6  99.9 15.00  0.00  0.00  0.00  0.00  0.00  0.00   2.0  0.00  0.00  0.00  0.00
 1982 126   212   202  10.9 -20.0 37.57 12.86  0.88  2.72 167.9  2.45 0.346  2.79  4441     9   533  3900  1029  2871     0  0.00     0     0  2428     0 126.5 117.3  62.3     0     0  1279   238  1.17  0.84 128.0  63.2  7.56  0.00  0.00  0.00  0.00  0.00  0.00   2.0  0.00  0.00  0.00  0.00
 1982 127   213   203  14.4 -20.0 38.24 13.02  0.88  2.72 315.6  2.52 0.363  2.89  4720     9   558  4152  1067  3085     0  0.00     0     0  2609     0 131.6 121.6  62.8     0     0  1259   236  1.18  0.84 123.7  29.1  3.68  0.00  0.00  0.00  0.00  0.00  0.00   2.0  0.00  0.00  0.00  0.00
 1982 128   214   204  20.5 -20.0 39.20 13.23  0.89  2.72 325.5  2.62 0.389  3.01  5002     9   585  4409  1121  3287     0  0.00     0     0  2760     0 138.8 126.1  62.6     0     0  1232   234  1.20  0.84 114.2  23.1  3.32  0.00  0.00  0.00  0.00  0.00  0.00   1.8  0.00  0.04  0.00  0.00
 1982 129   215   205  22.5 -20.0 40.29 13.47  0.90  2.72 296.3  2.72 0.414  3.13  5255     9   607  4639  1175  3464     0  0.00     0     0  2887     0 146.7 130.7  62.2     0     0  1204   231  1.22  0.85 109.7  23.6  3.69  0.00  0.00  0.00  0.00  0.00  0.00   2.0  0.00  0.17  0.00  0.00
 1982 130   216   206  22.5 -20.0 41.47 13.47  0.90  2.72 219.4  2.67 0.444  3.12  5444     9   622  4813  1166  3634     0  0.00     0     0  2938    13 146.7 135.6  61.2     0     0  1178   229  1.23  0.85 106.8  31.1  5.19  0.00  0.00  0.00  0.00  0.00  0.00   2.0  0.00  0.17  0.00  0.00
 1982 131   217   207  22.0 -20.0 42.63 13.47  0.89  2.72 271.0  2.63 0.482  3.11  5683     9   640  5033  1158  3850     0  0.00     0     0  3002    26 146.7 140.6  60.0     0     0  1153   227  1.25  0.86 103.9  24.6  4.32  0.00  0.00  0.00  0.00  0.00  0.00   2.0  0.00  0.13  0.00  0.00
 1982 132   218   208  18.9 -20.0 43.62 13.47  0.89  2.72 124.0  2.60 0.499  3.09  5784     9   645  5130  1152  3941     0  0.00     0     0  3030    36 146.7 145.7  59.5     0     0  1133   225  1.27  0.86 129.1  71.8 10.47  0.00  0.00  0.00  0.00  0.00  0.00   2.0  0.00  0.00  0.00  0.00
 1982 133   219   209  20.0 -20.0 44.68 13.47  0.89  2.72 130.8  2.56 0.516  3.07  5892     9   650  5233  1144  4041     0  0.00     0     0  3060    48 146.7 150.9  59.0     0     0  1113   224  1.28  0.87 126.9  65.5  9.78  0.00  0.00  0.00  0.00  0.00  0.00   2.0  0.00  0.00  0.00  0.00
 1982 134   220   210  17.8 -20.0 45.61 13.47  0.88  2.72 139.9  2.52 0.535  3.06  6010     9   656  5345  1138  4150     0  0.00     0     0  3093    57 146.7 156.1  58.5     0     0  1095   222  1.30  0.87 125.0  62.9  9.62  0.00  0.00  0.00  0.00  0.00  0.00   2.0  0.00  0.00  0.00  0.00
 1982 135   221   211  17.8 -20.0 46.54 13.47  0.88  2.72 319.6  2.49 0.583  3.07  6299     9   674  5616  1130  4418     0  0.00     0     0  3174    67 146.7 161.3  57.2     0     0  1078   220  1.31  0.88 130.7  28.5  4.21  0.00  0.00  0.00  0.00  0.00  0.00   2.0  0.00  0.00  0.00  0.00
 1982 136   222   212  19.5 -20.0 47.57 13.47  0.88  2.72 136.5  2.46 0.601  3.06  6413     9   678  5726  1122  4527     0  0.00     0     0  3206    77 146.7 166.7  56.8     0     0  1060   219  1.33  0.88 129.6  64.8  9.90  0.00  0.00  0.00  0.00  0.00  0.00   2.0  0.00  0.00  0.00  0.00
 1982 137   223   213  19.5 -20.0 48.59 13.47  0.87  2.72 196.7  2.42 0.630  3.05  6585     9   686  5890  1114  4689     0  0.00     0     0  3254    88 146.7 172.1  56.1     0     0  1043   217  1.35  0.89 130.2  45.1  6.90  0.00  0.00  0.00  0.00  0.00  0.00   2.0  0.00  0.00  0.00  0.00
 1982 138   224   214  20.3 -20.0 49.66 13.47  0.87  2.72 297.9  2.38 0.674  3.06  6854     9   699  6145  1105  4821     0  0.00   121   121  3330    98 146.7 177.6  55.1     0     0  1025   216  1.36  0.89 126.2  28.0  4.48  0.00  0.00  0.00  0.00  0.00  0.00   2.0  0.00  0.02  0.00  0.00
 1982 139   225   215  23.6 -20.0 53.43 13.47  0.86  2.72 277.6  2.34 0.715  3.05  7102     9   711  6382  1093  4761     0  0.00   418   234  3400   110 146.7 183.2  54.2     0     0  1006   214  1.38  0.90 121.9  27.4  4.63  0.00  0.00  0.00  0.00  0.00  0.00   2.0  0.00  0.24  0.00  0.00
 1982 140   226   216  21.1 -20.0 57.65 13.47  0.86  2.72 165.6  2.31 0.739  3.05  7246     9   714  6523  1088  4690     0  0.00   625   303  3441   120 146.7 188.9  53.7     0     0   990   212  1.40  0.92 119.8  47.7  8.33  0.00  0.00  0.00  0.00  0.00  0.00   2.0  0.00  0.07  0.00  0.00
 1982 141   227   217  18.0 -20.0 63.14 13.47  0.86  2.72 244.4  2.28 0.777  3.06  7469     9   717  6742  1083  4740     0  0.00   791   407  3505   128 146.7 194.6  53.0     0     0   977   210  1.41  0.93 138.8  39.9  6.03  0.00  0.00  0.00  0.00  0.00  0.00   2.0  0.00  0.00  0.00  0.00
 1982 142   228   218  16.1 -20.0 70.19 13.47  0.85  2.72 196.9  2.26 0.808  3.06  7648     9   718  6921  1079  4740     0  0.00   968   493  3558   134 146.7 200.3  52.4     0     0   966   209  1.43  0.95 134.9  50.2  7.85  0.00  0.00  0.00  0.00  0.00  0.00   2.0  0.00  0.00  0.00  0.00
 1982 143   229   219  18.0 -20.0 71.58 13.47  0.85  2.72 268.1  2.23 0.852  3.08  7898     9   717  7171  1073  4811     3  0.00  1143   613  3629   142 146.7 206.1  51.6 17646 .0000   954   208  1.44  0.97 127.4  33.2  5.49  0.00  0.00  0.00  0.00  0.00  0.00   2.0  0.00  0.00  0.00  0.00
 1982 144   230   220  18.7 -20.0 73.01 13.47  0.85  2.72 106.4  2.20 0.850  3.05  7989     9   713  7266  1067  4765    26  0.00  1259   636  3706   150 146.7 211.8  52.3 17646 .0001   942   206  1.46  0.98 126.3  83.2 13.89  0.00  0.00  0.00  0.00  0.00  0.00   2.0  0.00  0.00  0.00  0.00
 1982 145   231   221  20.0 -20.0 74.55 13.47  0.84  2.72 157.7  2.17 0.848  3.02  8130     9   709  7411  1060  4841    73  0.01  1280   683  3810   158 146.7 217.5  53.1 17646 .0004   930   205  1.47  0.98 140.8  60.8  9.05  0.00  0.00  0.00  0.00  0.00  0.00   2.0  0.00  0.00  0.00  0.00
 1982 146   232   222  16.4 -20.0 75.81 13.47  0.84  2.72 290.0  2.15 0.846  3.00  8404     9   707  7688  1055  5012   131  0.02  1325   741  4032   165 146.7 223.2  54.5 17646 .0007   920   204  1.49  0.98 154.9  38.9  5.24  0.00  0.00  0.00  0.00  0.00  0.00   2.0  0.00  0.00  0.00  0.00
 1982 147   233   223  18.4 -20.0 77.22 13.47  0.84  2.72 320.8  2.12 0.844  2.97  8707     9   705  7993  1049  5187   214  0.03  1371   824  4259   172 146.7 228.8  56.0 17646 .0012   910   202  1.50  0.98 149.6  32.1  4.47  0.00  0.00  0.00  0.00  0.00  0.00   2.0  0.00  0.00  0.00  0.00
 1982 148   234   224  23.3 -20.0 79.02 13.47  0.83  2.72 176.2  2.09 0.842  2.93  8865     9   702  8154  1039  5210   346  0.04  1378   956  4295   181 146.7 234.5  56.3 17646 .0020   897   201  1.52  0.98 137.6  49.4  7.44  0.00  0.00  0.00  0.00  0.00  0.00   2.0  0.00  0.22  0.00  0.00
 1982 149   235   225  21.4 -20.0 80.17 13.47  0.83  2.72 258.9  2.06 0.840  2.90  9106     9   699  8398  1033  5282   496  0.06  1398  1107  4394   189 146.7 240.1  57.0 17646 .0028   887   199  1.54  0.98 156.0  39.7  5.24  0.00  0.00  0.00  0.00  0.00  0.00   2.0  0.00  0.09  0.00  0.00
 1982 150   236   226  20.5 -20.0 80.58 13.47  0.82  2.72 197.9  2.05 0.837  2.88  9287     9   696  8582  1034  5294   660  0.08  1401  1270  4416   193 146.7 245.7  57.1 17646 .0037   877   198  1.56  0.98 148.9  50.3  6.94  0.00  0.00  0.00  0.00  0.00  0.00   2.0  0.00  0.04  0.00  0.00
 1982 151   237   227  17.8 -20.0 80.94 13.47  0.82  2.72 160.4  2.04 0.836  2.87  9432     9   692  8731  1036  5296   802  0.09  1401  1412  4426   197 146.7 251.3  57.2 17646 .0045   869   197  1.57  0.98 154.0  68.3  9.07  0.00  0.00  0.00  0.00  0.00  0.00   2.0  0.00  0.00  0.00  0.00
 1982 152   238   228  12.8 -20.0 81.19 13.47  0.82  2.72 318.0  2.03 0.834  2.86  9737     9   691  9037  1038  5470   883  0.10  1446  1493  4651   199 146.7 256.8  58.5 17646 .0050   863   195  1.58  0.98 139.2  34.2  5.00  0.00  0.00  0.00  0.00  0.00  0.00   2.0  0.00  0.00  0.00  0.00
 1982 153   239   229  15.2 -20.0 81.50 13.47  0.82  2.72 120.7  2.02 0.833  2.85  9844     9   686  9149  1038  5465   999  0.11  1445  1609  4649   202 146.7 262.3  58.5 17646 .0057   857   195  1.59  0.98 137.7  86.3 12.72  0.00  0.00  0.00  0.00  0.00  0.00   1.7  0.00  0.00  0.00  0.00
 1982 154   240   230  15.0 -20.0 81.80 13.47  0.82  2.72  83.7  2.01 0.831  2.84  9915     9   682  9224  1038  5433  1111  0.12  1436  1721  4614   205 146.7 267.8  58.3 17646 .0063   851   194  1.61  0.98 137.8  99.9 15.00  0.00  0.00  0.00  0.00  0.00  0.00   1.4  0.00  0.00  0.00  0.00
 1982 155   241   231  17.0 -20.0 82.14 13.47  0.82  2.72 159.3  2.00 0.830  2.83 10061     9   678  9373  1039  5442  1246  0.13  1439  1856  4629   208 146.7 273.3  58.5 17646 .0071   845   193  1.62  0.98 138.0  62.8  9.12  0.00  0.00  0.00  0.00  0.00  0.00   0.7  0.00  0.00  0.00  0.00
 1982 156   242   232  17.8 -20.0 82.49 13.47  0.82  2.72 236.9  1.99 0.828  2.82 10283     9   676  9598  1039  5505  1388  0.14  1455  1998  4714   211 146.7 278.7  58.9 17646 .0079   838   191  1.63  0.98 134.4  40.2  5.96  0.00  0.00  0.00  0.00  0.00  0.00   0.5  0.00  0.00  0.00  0.00
 1982 157   243   233  25.5 -20.0 83.00 13.47  0.81  2.53 192.6  1.97 0.826  2.80 10458     9   673  9776  1037  5483  1591  0.16  1449  2201  4692   216 146.7 284.1  58.9 17646 .0090   829   190  1.66  0.98 131.0  38.5  5.84  0.00  0.00  0.00  0.02  0.02  0.02   0.3  0.05  0.37  0.00  0.00
 1982 158   244   234  20.2 -20.0 83.41 13.47  0.81  2.33 241.1  1.97 0.824  2.79 10684     9   670 10005  1044  5530  1752  0.18  1461  2363  4759   218 146.7 289.5  59.2 17646 .0099   822   189  1.67  0.98 138.9  32.9  4.68  0.00  0.00  0.00  0.15  0.15  0.15   0.2  0.00  0.02  0.00  0.00
 1982 159   245   235  25.8 -20.0 83.93 13.47  0.80  1.86 155.1  1.90 0.821  2.72 10823     9   667 10147  1013  5487  1958  0.19  1454  2568  4711   235 146.7 294.8  59.2 17646 .0111   813   187  1.69  0.98 135.1  36.1  5.26  0.00  0.00  0.00  0.26  0.26  0.26   0.2  0.08  0.39  0.00  0.00
 1982 160   246   236  22.8 -20.0 84.38 13.47  0.77  1.68 167.2  1.74 0.819  2.56 10975     9   663 10302   938  5489  2139  0.21  1464  2750  4721   273 146.7 300.2  59.8 17646 .0121   806   186  1.71  0.98 148.9  35.5  4.67  0.00  0.00  0.00  0.38  0.38  0.38   0.4  0.00  0.18  0.00  0.00
 1982 161   247   237  16.4 -20.0 84.71 13.47  0.72  1.41 158.6  1.51 0.818  2.33 11121     9   660 10452   820  5542  2270  0.22  1493  2880  4794   327 146.7 305.5  61.0 17646 .0129   801   184  1.73  0.98 141.9  33.7  4.63  0.00  0.00  0.00  0.48  0.48  0.48   0.3  0.00  0.00  0.00  0.00
 1982 162   248   238  18.0 -20.0 85.07 13.47  0.65  1.17  50.3  1.23 0.816  2.05 11159     9   655 10495   671  5513  2413  0.23  1504  3024  4759   394 146.7 310.8  61.9 17646 .0137   795   184  1.74  0.98 140.2  85.9 11.89  0.00  0.00  0.00  0.57  0.57  0.57   0.2  0.00  0.00  0.00  0.00
 1982 163   249   239  19.8 -20.0 85.46 13.47  0.36  0.96  71.6  0.52 0.814  1.34 11217     9   651 10557   287  5571  2571  0.24  1568  3181  4830   561 146.7 316.0  65.0 17646 .0146   789   182  1.76  0.98 137.3  47.0  6.59  0.00  0.00  0.00  0.65  0.65  0.65   0.4  0.00  0.00  0.00  0.00
 1982 164   250   240  20.9 -20.0 85.88 13.47  0.00  0.80  24.0  0.00 0.812  0.81 11228     9   646 10573     0  5552  2737  0.26  1600  3347  4802   683 146.7 321.2  67.1 17646 .0155   782   -99  1.77  0.98 136.2  99.9 15.00  0.00  0.00  0.00  0.71  0.71  0.71   0.4  0.00  0.06  0.00  0.00
 1982 165   251   241  23.9 -20.0 86.36 13.47  0.00  0.00   0.0  0.00 0.810  0.81 11223     9   641 10573     0  5401  2927  0.28  1561  3538  4611   683 146.7 326.4  66.2 17646 .0166   774   -99  1.77  0.98 135.9  99.9 15.00  0.00  0.00  0.00  0.00  0.00  0.00   0.2  0.00  0.26  0.00  0.00
 1982 166   252   242  22.5 -20.0 86.81 13.47  0.00  0.00   0.0  0.00 0.808  0.81 11217     9   636 10573     0  5259  3107  0.29  1524  3717  4432   683 146.7 331.5  65.3 17646 .0176   767   -99  1.77  0.98 153.6  99.9 15.00  0.00  0.00  0.00  0.00  0.00  0.00   0.2  0.00  0.17  0.00  0.00
 1982 167   253   243  18.6 -20.0 87.18 13.47  0.00  0.00   0.0  0.00 0.806  0.81 11212     9   631 10573     0  5209  3169  0.30  1511  3779  4370   683 146.7 336.6  65.0 17646 .0180   760   -99  1.77  0.98 148.9  99.9 15.00  0.00  0.00  0.00  0.00  0.00  0.00   0.3  0.00  0.00  0.00  0.00
 1982 168   254   244  21.1 -20.0 87.60 13.47  0.00  0.00   0.0  0.00 0.805  0.80 11207     9   626 10573     0  5187  3197  0.30  1505  3808  4341   683 146.7 341.6  64.9 17646 .0181   753   -99  1.77  0.98 143.4  99.9 15.00  0.00  0.00  0.00  0.00  0.00  0.00   0.1  0.00  0.07  0.00  0.00
 1982 169   255   245  21.1 -20.0 88.02 13.47  0.00  0.00   0.0  0.00 0.803  0.80 11202     9   621 10573     0  5149  3244  0.31  1495  3855  4294   683 146.7 346.6  64.6 17646 .0184   746   -99  1.77  0.98 140.0  99.9 15.00  0.00  0.00  0.00  0.00  0.00  0.00   0.2  0.00  0.07  0.00  0.00
 1982 170   256   246  19.2 -20.0 88.41 13.47  0.00  0.00   0.0  0.00 0.798  0.80 11197     9   616 10573     0  5101  3285  0.31  1491  3895  4254   695 146.7 351.6  64.5 17646 .0186   739   -99  1.77  0.98 139.2  99.9 15.00  0.00  0.00  0.00  0.00  0.00  0.00   0.2  0.00  0.00  0.00  0.00
 1982 171   257   247  22.8 -19.7 88.86 13.47  0.00  0.00   0.0  0.00 0.793  0.79 11192     9   611 10573     0  5059  3316  0.31  1488  3926  4223   709 146.7 356.5  64.5 17646 .0188   732   -99  1.77  0.98 138.5  99.9 15.00  0.00  0.00  0.00  0.00  0.00  0.00   0.1  0.00  0.18  0.00  0.00
 1982 172   258   248  22.2 -16.9 89.31 13.47  0.00  0.00   0.0  0.00 0.787  0.79 11188     9   606 10573     0  5005  3361  0.32  1483  3971  4178   723 146.7 361.4  64.4 17646 .0190   724   -99  1.77  0.98 137.7  99.9 15.00  0.00  0.00  0.00  0.00  0.00  0.00   0.2  0.00  0.15  0.00  0.00
 1982 173   259   249  20.8 -14.4 89.72 13.47  0.00  0.00   0.0  0.00 0.782  0.78 11183     9   601 10573     0  4946  3415  0.32  1476  4025  4124   736 146.7 366.3  64.2 17646 .0194   717   -99  1.77  0.98 148.9  99.9 15.00  0.00  0.00  0.00  0.00  0.00  0.00   0.3  0.00  0.06  0.00  0.00
 1982 174   260   250  21.7 -12.1 90.40 13.47  0.00  0.00   0.0  0.00 0.777  0.78 11178     9   596 10573     0  4895  3458  0.33  1471  4068  4081   749 146.7 371.1  64.1 17646 .0196   709   -99  1.77  0.98 145.9  99.9 15.00  0.00  0.00  0.00  0.00  0.00  0.00   0.2  0.00  0.11  0.00  0.00
