$GROWTH FACTOR OUTPUT FILE

*DSSAT Cropping System Model Ver. 4.5.1.023 -Stub         OCT 13, 2014; 10:45:28
                                                                                
*RUN   1        : DRYLAND  - 0 KG N/HA      CSCER045 KSAS8101    1              
 MODEL          : CSCER045 - Wheat                                              
 EXPERIMENT     : KSAS8101 WH                                                   
 DATA PATH      :                                                               
 TREATMENT  1   : DRYLAND  - 0 KG N/HA      CSCER045                            
  
!........DATES.......  TEMP STAGE  ...PHENOLOGY....  .......PHOTOSYNTHESIS.......  .....GROWTH.....  ..TILLERS. WATER STRESS DETERMINANTS N STRESS DETERMINANTS       
@YEAR DOY   DAS   DAP TMEAN  GSTD    DU VRNFD DYLFD  TFPD  WFPD  NFPD CO2FD RSFPD  TFGD  WFGD  NFGD  WFTD  NFTD WAVRD WUPRD  SWXD  EOPD  SNXD LN%RD SN%RD RN%RD      
 1981 289    10     0  12.8   0.0  12.8  1.00  0.00  0.00  0.00  0.00 -0.01  0.00  0.00  0.00  0.00  0.00  0.00 99.90  1.00   7.4   0.0 180.6  0.00  0.00  0.00
 1981 290    11     1  16.1   5.6   0.0  1.00  0.00  0.00  0.00  0.00 -0.01  0.00  0.00  0.00  0.00  0.00  0.00 99.90  1.00   8.7   0.0 181.3  0.00  0.00  0.00
 1981 291    12     2   9.4   6.5   0.0  0.98  0.00  0.00  0.00  0.00 -0.01  0.00  0.06  0.00  0.00  0.00  0.00 99.90  1.00   9.9   0.0 181.9  0.00  0.00  1.00
 1981 292    13     3  12.2   7.8   0.2  0.98  0.00  0.00  0.00  0.00 -0.01  0.00  0.00  0.00  0.00  0.00  0.00 99.90  1.00  11.8   0.0 182.6  0.00  0.00  1.00
 1981 293    14     4  17.5   9.7   0.4  0.98  0.00  0.00  0.00  0.00 -0.01  0.00  0.00  0.00  0.00  0.00  0.00 99.90  1.00  14.9   0.0 183.3  0.00  0.00  1.00
 1981 294    15     5  11.7  10.0   0.3  0.97  0.00  0.00  0.00  0.00 -0.01  0.00  0.00  0.00  0.00  0.00  0.00 99.90  1.00  16.8   0.0 183.9  0.00  0.00  1.00
 1981 295    16     6   6.2  10.1   0.1  0.95  0.50  0.00  0.00  0.00 -0.01  0.00  0.38  0.00  0.00  0.00  0.00 99.90  1.00  17.4   0.0 184.7  1.00  0.00  1.00
 1981 296    17     7   1.9  10.1   0.1  0.92  0.50  0.61  0.00  0.00 -0.01  0.00  0.81  0.00  0.00  0.00  0.00 99.90 15.00  17.1   0.0 185.4  0.99  0.00  1.00
 1981 297    18     8   6.1  10.2   0.2  0.90  0.51  0.00  0.00  0.01 -0.01  0.00  0.39  0.00  0.01  0.00  0.01 99.90 15.00  17.8   0.0 186.0  0.99  0.00  1.00
 1981 298    19     9   8.4  10.3   0.4  0.88  0.51  0.00  0.00  0.01 -0.01  0.00  0.16  0.00  0.01  0.00  0.01 99.90 15.00  21.5   0.0 186.6  0.99  0.00  1.00
 1981 299    20    10   7.8  10.4   0.4  0.86  0.52  0.00  0.00  0.01 -0.01  0.00  0.22  0.00  0.01  0.00  0.01 99.90 14.83  22.8   0.0 187.0  0.99  0.00  1.00
 1981 300    21    11  13.7  10.6   0.9  0.86  0.52  0.00  0.00  0.01 -0.01  0.00  0.00  0.00  0.01  0.00  0.01 99.90  9.83  24.4   0.0 187.4  1.00  0.10  1.00
 1981 301    22    12  16.2  10.8   1.1  0.86  0.53  0.00  0.00  0.00 -0.01  0.00  0.00  0.00  0.00  0.00  0.00 99.90  7.11  26.4   0.0 187.7  1.00  0.25  1.00
 1981 302    23    13  17.5  11.0   1.2  0.86  0.53  0.00  0.00  0.00 -0.01  0.00  0.00  0.00  0.00  0.00  0.00 99.90  5.31  28.7   0.0 188.0  1.00  0.37  1.00
 1981 303    24    14  16.1  11.2   1.1  0.86  0.53  0.00  0.00  0.00 -0.01  0.00  0.00  0.00  0.00  0.00  0.00 99.90 15.00  30.9   0.0 188.4  1.00  0.48  1.00
 1981 304    25    15  13.9  11.4   0.9  0.86  0.54  0.00  0.00  0.00 -0.01  0.00  0.00  0.00  0.00  0.00  0.00 99.90 15.00  33.4   0.0 188.9  1.00  0.54  1.00
 1981 305    26    16  12.2  11.6   0.8  0.85  0.54  0.00  0.00  0.00 -0.01  0.00  0.00  0.00  0.00  0.00  0.00 99.90 15.00  51.4   0.0 189.4  1.00  0.59  1.00
 1981 306    27    17  10.2  11.7   0.7  0.83  0.55  0.00  0.00  0.00 -0.01  0.00  0.00  0.00  0.00  0.00  0.00 99.90 15.00  53.0   0.0 190.0  1.00  0.62  1.00
 1981 307    28    18  11.4  11.9   0.8  0.82  0.55  0.00  0.00  0.00 -0.01  0.00  0.00  0.00  0.00  0.00  0.00 99.90  7.31  52.2   0.0 190.7  1.00  0.66  1.00
 1981 308    29    19  10.2  12.0   0.8  0.81  0.56  0.00  0.00  0.00 -0.01  0.00  0.00  0.00  0.00  0.00  0.00 99.90 12.62  56.8   0.0 191.2  1.00  0.69  1.00
 1981 309    30    20  10.6  12.1   0.9  0.80  0.56  0.00  0.00  0.00 -0.01  0.00  0.00  0.00  0.00  0.00  0.00 99.90  3.44  55.7   0.1 191.7  1.00  0.72  1.00
 1981 310    31    21   6.7  12.2   0.6  0.78  0.56  0.00  0.00  0.00 -0.01  0.00  0.33  0.00  0.00  0.00  0.00 99.90  3.65  52.3   0.1 192.1  1.00  0.73  1.00
 1981 311    32    22   9.7  12.3   0.9  0.76  0.57  0.00  0.00  0.00 -0.01  0.00  0.03  0.00  0.00  0.00  0.00 99.90  5.03  51.9   0.1 183.9  1.00  0.76  1.00
 1981 312    33    23  10.9  12.4   1.1  0.75  0.57  0.00  0.00  0.00 -0.01  0.00  0.00  0.00  0.00  0.00  0.00 99.90 15.00  61.2   0.0 182.1  1.00  0.78  1.00
 1981 313    34    24   2.5  12.4   0.3  0.73  0.57  0.50  0.00  0.00 -0.01  0.00  0.75  0.00  0.00  0.00  0.00 99.90  4.52  60.1   0.1 181.4  1.00  0.77  1.00
 1981 314    35    25   5.6  12.5   0.6  0.71  0.58  0.00  0.00  0.00 -0.01  0.00  0.44  0.00  0.00  0.00  0.00 99.90  4.45  55.8   0.1 178.9  1.00  0.79  1.00
 1981 315    36    26   7.5  12.6   0.9  0.69  0.58  0.00  0.00  0.00 -0.01  0.00  0.25  0.00  0.00  0.00  0.00 99.90  4.74  54.5   0.1 166.8  1.00  0.80  1.00
 1981 316    37    27  10.9  12.7   1.4  0.67  0.59  0.00  0.00  0.00 -0.01  0.00  0.00  0.00  0.00  0.00  0.00 99.90  4.67  53.8   0.1 164.2  1.00  0.83  1.00
 1981 317    38    28  10.6  12.8   1.4  0.66  0.59  0.00  0.00  0.00 -0.01  0.00  0.00  0.00  0.00  0.00  0.00 99.90  4.86  53.2   0.1 164.5  1.00  0.85  1.00
 1981 318    39    29  13.0  12.9   1.8  0.66  0.59  0.00  0.00  0.00 -0.01  0.00  0.00  0.00  0.00  0.00  0.00 99.90  6.54  53.3   0.1 164.8  1.00  0.87  1.00
 1981 319    40    30  15.0  13.1   2.1  0.66  0.60  0.00  0.00  0.00 -0.01  0.00  0.00  0.00  0.00  0.00  0.00 99.90  5.75  53.3   0.1 165.2  1.00  0.89  1.00
 1981 320    41    31  17.5  13.3   2.4  0.66  0.60  0.00  0.00  0.00 -0.01  0.00  0.00  0.00  0.00  0.00  0.00 99.90  4.22  53.9   0.2 165.6  1.00  0.91  1.00
 1981 321    42    32  12.8  13.4   1.7  0.65  0.60  0.00  0.00  0.00 -0.01  0.00  0.00  0.00  0.00  0.00  0.00 99.90  4.70  54.1   0.2 165.9  1.00  0.93  1.00
 1981 322    43    33  14.1  13.5   1.9  0.65  0.61  0.00  0.00  0.00 -0.01  0.00  0.00  0.00  0.00  0.00  0.00 99.90  7.24  54.6   0.1 166.4  1.00  0.94  1.00
 1981 323    44    34   4.1  13.6   0.6  0.63  0.61  0.17  0.00  0.00 -0.01  0.00  0.59  0.00  0.00  0.00  0.00 99.90 15.00  54.6   0.0 166.9  1.00  0.94  1.00
 1981 324    45    35   0.0  13.6   0.0  0.60  0.61  1.00  0.00  0.00 -0.01  0.00  1.00  0.00  0.00  0.00  0.00 99.90 10.72  53.9   0.1 167.6  1.00  0.95  1.00
 1981 325    46    36   2.5  13.6   0.4  0.58  0.62  0.50  0.00  0.00 -0.01  0.00  0.75  0.00  0.00  0.00  0.00 99.90  5.70  53.5   0.1 168.2  1.00  0.95  1.00
 1981 326    47    37   7.0  13.7   1.1  0.56  0.62  0.00  0.00  0.00 -0.01  0.00  0.30  0.00  0.00  0.00  0.00 99.90  6.98  53.5   0.1 168.6  1.00  0.95  1.00
 1981 327    48    38  10.6  13.8   1.8  0.55  0.62  0.00  0.00  0.00 -0.01  0.00  0.00  0.00  0.00  0.00  0.00 99.90  5.06  53.8   0.2 168.9  1.00  0.96  1.00
 1981 328    49    39   6.4  13.9   1.1  0.52  0.62  0.00  0.00  0.00 -0.01  0.00  0.36  0.00  0.00  0.00  0.00 99.90  6.39  53.8   0.1 169.0  1.00  0.97  1.00
 1981 329    50    40  12.2  14.0   2.2  0.52  0.63  0.00  0.00  0.00 -0.01  0.00  0.00  0.00  0.00  0.00  0.00 99.90  5.31  54.3   0.2 169.1  1.00  0.97  1.00
 1981 330    51    41   6.7  14.1   1.2  0.49  0.63  0.00  0.00  0.00 -0.01  0.00  0.33  0.00  0.00  0.00  0.00 99.90  8.59  54.4   0.1 169.2  1.00  0.98  1.00
 1981 331    52    42  -0.8  14.1   0.0  0.48  0.63  1.00  0.00  0.00 -0.01  0.00  1.00  0.00  0.00  0.00  0.00 99.90 11.75  54.1   0.1 169.5  1.00  0.98  1.00
 1981 332    53    43   2.5  14.1   0.5  0.45  0.64  0.50  0.00  0.00 -0.01  0.00  0.75  0.00  0.00  0.00  0.00 99.90 11.19  54.1   0.1 169.8  1.00  0.98  1.00
 1981 333    54    44   3.0  14.1   0.6  0.43  0.64  0.39  0.00  0.00 -0.01  0.00  0.70  0.00  0.00  0.00  0.00 99.90 12.86  54.2   0.1 170.1  1.00  0.98  1.00
 1981 334    55    45   5.9  14.2   1.2  0.41  0.64  0.00  0.00  0.00 -0.01  0.00  0.41  0.00  0.00  0.00  0.00 99.90 15.00  73.4   0.0 170.3  1.00  0.98  1.00
 1981 335    56    46   2.2  14.2   0.5  0.39  0.64  0.56  0.00  0.00 -0.01  0.00  0.78  0.00  0.00  0.00  0.00 99.90 15.00  79.5   0.0 170.5  1.00  0.99  1.00
 1981 336    57    47   3.6  14.2   0.8  0.36  0.64  0.28  0.00  0.00 -0.01  0.00  0.64  0.00  0.00  0.00  0.00 99.90  8.61  73.4   0.1 169.7  1.00  0.99  1.00
 1981 337    58    48   4.5  14.3   1.0  0.34  0.65  0.11  0.00  0.00 -0.01  0.00  0.55  0.00  0.00  0.00  0.00 99.90  7.07  71.0   0.2 161.0  1.00  0.99  1.00
 1981 338    59    49   3.9  14.3   0.9  0.32  0.65  0.22  0.00  0.00 -0.01  0.00  0.61  0.00  0.00  0.00  0.00 99.90  7.51  70.1   0.2 159.1  1.00  0.99  1.00
 1981 339    60    50   3.9  14.4   0.9  0.30  0.65  0.22  0.00  0.00 -0.01  0.00  0.61  0.00  0.00  0.00  0.00 99.90 15.00  70.0   0.1 159.2  1.00  0.99  1.00
 1981 340    61    51   8.9  14.5   2.2  0.28  0.65  0.00  0.00  0.00 -0.01  0.00  0.11  0.00  0.00  0.00  0.00 99.90  9.75  69.7   0.1 159.3  1.00  1.00  1.00
 1981 341    62    52  11.7  14.6   2.9  0.27  0.65  0.00  0.00  0.00 -0.01  0.00  0.00  0.00  0.00  0.00  0.00 99.90  7.15  69.4   0.2 159.4  1.00  1.00  1.00
 1981 342    63    53   3.7  14.6   0.9  0.25  0.66  0.27  0.00  0.00 -0.01  0.00  0.63  0.00  0.00  0.00  0.00 99.90 10.24  68.7   0.1 159.5  1.00  1.00  1.00
 1981 343    64    54   2.2  14.7   0.6  0.23  0.66  0.55  0.00  0.00 -0.01  0.00  0.77  0.00  0.00  0.00  0.00 99.90 10.23  67.8   0.1 159.8  1.00  1.00  1.00
 1981 344    65    55  -0.3  14.7   0.0  0.21  0.66  1.00  0.00  0.00 -0.01  0.00  1.00  0.00  0.00  0.00  0.00 99.90 15.00  67.7   0.0 160.1  1.00  1.00  1.00
 1981 345    66    56   2.5  14.7   0.7  0.18  0.66  0.50  0.00  0.00 -0.01  0.00  0.75  0.00  0.00  0.00  0.00 99.90 15.00  67.8   0.0 160.4  1.00  1.00  1.00
 1981 346    67    57   2.8  14.7   0.8  0.16  0.66  0.44  0.00  0.00 -0.01  0.00  0.72  0.00  0.00  0.00  0.00 99.90 15.00  67.9   0.0 160.7  1.00  1.00  1.00
 1981 347    68    58   2.5  14.7   0.7  0.14  0.66  0.50  0.00  0.00 -0.01  0.00  0.75  0.00  0.00  0.00  0.00 99.90 15.00  68.0   0.0 160.8  1.00  1.00  1.00
 1981 348    69    59   0.5  14.7   0.2  0.12  0.66  0.89  0.00  0.00 -0.01  0.00  0.94  0.00  0.00  0.00  0.00 99.90 15.00  67.9   0.1 160.9  1.00  1.00  1.00
 1981 349    70    60   0.0  14.7   0.0  0.10  0.66  1.00  0.00  0.00 -0.01  0.00  1.00  0.00  0.00  0.00  0.00 99.90 15.00  67.6   0.0 161.0  1.00  1.00  1.00
 1981 350    71    61  -4.7  14.7   0.0  0.09  0.66  1.00  0.00  0.00 -0.01  0.00  1.00  0.00  0.00  0.00  0.00 99.90 15.00  67.6   0.0 161.0  1.00  1.00  1.00
 1981 351    72    62 -12.5  14.7   0.0  0.07  0.67  1.00  0.00  0.00 -0.01  0.00  1.00  0.00  0.00  0.00  0.00 99.90 15.00  67.5   0.0 161.1  1.00  1.00  1.00
 1981 352    73    63 -13.6  14.7   0.0  0.05  0.67  1.00  0.00  0.00 -0.01  0.00  1.00  0.00  0.00  0.00  0.00 99.90 15.00  67.5   0.0 161.1  1.00  1.00  1.00
 1981 353    74    64 -11.4  14.7   0.0  0.03  0.67  1.00  0.00  0.00 -0.01  0.00  1.00  0.00  0.00  0.00  0.00 99.90 15.00  67.4   0.0 161.1  1.00  1.00  1.00
 1981 354    75    65  -4.2  14.7   0.0  0.01  0.67  1.00  0.00  0.00 -0.01  0.00  1.00  0.00  0.00  0.00  0.00 99.90 15.00  70.0   0.0 161.1  1.00  1.00  1.00
 1981 355    76    66   2.0  14.8   0.6  0.00  0.67  0.61  0.00  0.00 -0.01  0.00  0.81  0.00  0.00  0.00  0.00 99.90 15.00  72.1   0.0 161.1  1.00  1.00  1.00
 1981 356    77    67   1.7  14.8   0.6  0.00  0.67  0.66  0.00  0.00 -0.01  0.00  0.83  0.00  0.00  0.00  0.00 99.90 15.00  72.2   0.0 161.1  1.00  1.00  1.00
 1981 357    78    68  -1.1  14.8   0.0  0.00  0.67  1.00  0.00  0.00 -0.01  0.00  1.00  0.00  0.00  0.00  0.00 99.90 15.00  71.1   0.0 161.2  1.00  1.00  1.00
 1981 358    79    69  -0.3  14.8   0.0  0.00  0.67  1.00  0.00  0.00 -0.01  0.00  1.00  0.00  0.00  0.00  0.00 99.90 15.00  70.1   0.0 161.2  1.00  1.00  1.00
 1981 359    80    70   1.6  14.8   0.6  0.00  0.67  0.67  0.00  0.00 -0.01  0.00  0.84  0.00  0.00  0.00  0.00 99.90 15.00  69.3   0.0 161.2  1.00  1.00  1.00
 1981 360    81    71  -1.7  14.8   0.0  0.00  0.67  1.00  0.00  0.00 -0.01  0.00  1.00  0.00  0.00  0.00  0.00 99.90 15.00  68.7   0.0 161.2  1.00  1.00  1.00
 1981 361    82    72  -3.1  14.8   0.0  0.00  0.67  1.00  0.00  0.00 -0.01  0.00  1.00  0.00  0.00  0.00  0.00 99.90 15.00  68.5   0.0 161.3  1.00  1.00  1.00
 1981 362    83    73  -4.4  14.8   0.0  0.00  0.66  1.00  0.00  0.00 -0.01  0.00  1.00  0.00  0.00  0.00  0.00 99.90 15.00  68.3   0.0 161.3  1.00  1.00  1.00
 1981 363    84    74  -3.6  14.8   0.0  0.00  0.66  1.00  0.00  0.00 -0.01  0.00  1.00  0.00  0.00  0.00  0.00 99.90 15.00  67.7   0.0 161.4  1.00  1.00  1.00
 1981 364    85    75   1.7  14.8   0.6  0.00  0.66  0.66  0.00  0.00 -0.01  0.00  0.83  0.00  0.00  0.00  0.00 99.90 15.00  67.1   0.0 161.4  1.00  1.00  1.00
 1981 365    86    76   0.0  14.8   0.0  0.00  0.66  1.00  0.00  0.00 -0.01  0.00  1.00  0.00  0.00  0.00  0.00 99.90 15.00  66.4   0.0 161.4  1.00  1.00  1.00
 1982   1    87    77  -6.1  14.8   0.0  0.00  0.66  1.00  0.00  0.00 -0.01  0.00  1.00  0.00  0.00  0.00  0.00 99.90 15.00  66.3   0.0 161.4  1.00  1.00  1.00
 1982   2    88    78   0.8  14.8   0.3  0.00  0.66  0.83  0.00  0.00 -0.01  0.00  0.92  0.00  0.00  0.00  0.00 99.90 15.00  68.2   0.0 161.5  1.00  1.00  1.00
 1982   3    89    79  -6.3  14.8   0.0  0.00  0.66  1.00  0.00  0.00 -0.01  0.00  1.00  0.00  0.00  0.00  0.00 99.90 15.00  68.2   0.0 161.5  1.00  1.00  1.00
 1982   4    90    80  -6.1  14.8   0.0  0.00  0.66  1.00  0.00  0.00 -0.01  0.00  1.00  0.00  0.00  0.00  0.00 99.90 15.00  73.2   0.0 161.5  1.00  1.00  1.00
 1982   5    91    81  -1.6  14.8   0.0  0.00  0.66  1.00  0.00  0.00 -0.01  0.00  1.00  0.00  0.00  0.00  0.00 99.90 15.00  72.1   0.0 161.6  1.00  1.00  1.00
 1982   6    92    82 -10.9  14.8   0.0  0.00  0.65  1.00  0.00  0.00 -0.01  0.00  1.00  0.00  0.00  0.00  0.00 99.90 15.00  72.0   0.0 161.6  1.00  1.00  1.00
 1982   7    93    83 -11.4  14.8   0.0  0.00  0.65  1.00  0.00  0.00 -0.01  0.00  1.00  0.00  0.00  0.00  0.00 99.90 15.00  71.9   0.0 161.6  1.00  1.00  1.00
 1982   8    94    84  -2.8  14.8   0.0  0.00  0.65  1.00  0.00  0.00 -0.01  0.00  1.00  0.00  0.00  0.00  0.00 99.90 15.00  70.9   0.0 161.6  1.00  1.00  1.00
 1982   9    95    85  -8.4  14.8   0.0  0.00  0.65  1.00  0.00  0.00 -0.01  0.00  1.00  0.00  0.00  0.00  0.00 99.90 15.00  70.7   0.0 161.6  1.00  1.00  1.00
 1982  10    96    86 -18.6  14.8   0.0  0.00  0.65  1.00  0.00  0.00 -0.01  0.00  1.00  0.00  0.00  0.00  0.00 99.90 15.00  70.7   0.0 161.6  1.00  1.00  1.00
 1982  11    97    87 -13.4  14.8   0.0  0.00  0.64  1.00  0.00  0.00 -0.01  0.00  1.00  0.00  0.00  0.00  0.00 99.90 15.00  70.6   0.0 161.6  1.00  1.00  1.00
 1982  12    98    88  -9.1  14.8   0.0  0.00  0.64  1.00  0.00  0.00 -0.01  0.00  1.00  0.00  0.00  0.00  0.00 99.90 15.00  70.6   0.0 161.6  1.00  1.00  1.00
 1982  13    99    89 -14.5  14.8   0.0  0.00  0.64  1.00  0.00  0.00 -0.01  0.00  1.00  0.00  0.00  0.00  0.00 99.90 15.00  70.5   0.0 161.6  1.00  1.00  1.00
 1982  14   100    90  -3.0  14.8   0.0  0.00  0.64  1.00  0.00  0.00 -0.01  0.00  1.00  0.00  0.00  0.00  0.00 99.90 15.00  72.3   0.0 161.6  1.00  1.00  1.00
 1982  15   101    91  -1.4  14.8   0.0  0.00  0.64  1.00  0.00  0.00 -0.01  0.00  1.00  0.00  0.00  0.00  0.00 99.90 15.00  71.6   0.0 161.6  1.00  1.00  1.00
 1982  16   102    92 -14.1  14.8   0.0  0.00  0.63  1.00  0.00  0.00 -0.01  0.00  1.00  0.00  0.00  0.00  0.00 99.90 15.00  71.6   0.0 161.6  1.00  1.00  1.00
 1982  17   103    93  -8.7  14.8   0.0  0.00  0.63  1.00  0.00  0.00 -0.01  0.00  1.00  0.00  0.00  0.00  0.00 99.90 15.00  71.3   0.0 161.6  1.00  1.00  1.00
 1982  18   104    94   0.3  14.8   0.1  0.00  0.63  0.94  0.00  0.00 -0.01  0.00  0.97  0.00  0.00  0.00  0.00 99.90 15.00  70.3   0.0 161.6  1.00  1.00  1.00
 1982  19   105    95  -0.6  14.8   0.0  0.00  0.62  1.00  0.00  0.00 -0.01  0.00  1.00  0.00  0.00  0.00  0.00 99.90 15.00  69.4   0.0 161.6  1.00  1.00  1.00
 1982  20   106    96  -3.3  14.8   0.0  0.00  0.62  1.00  0.00  0.00 -0.01  0.00  1.00  0.00  0.00  0.00  0.00 99.90 15.00  69.3   0.0 161.6  1.00  1.00  1.00
 1982  21   107    97  -5.0  14.8   0.0  0.00  0.62  1.00  0.00  0.00 -0.01  0.00  1.00  0.00  0.00  0.00  0.00 99.90 15.00  69.3   0.0 161.7  1.00  1.00  1.00
 1982  22   108    98  -2.2  14.8   0.0  0.00  0.62  1.00  0.00  0.00 -0.01  0.00  1.00  0.00  0.00  0.00  0.00 99.90 15.00  70.8   0.0 161.7  1.00  1.00  1.00
 1982  23   109    99 -10.9  14.8   0.0  0.00  0.61  1.00  0.00  0.00 -0.01  0.00  1.00  0.00  0.00  0.00  0.00 99.90 15.00  70.7   0.0 161.7  1.00  1.00  1.00
 1982  24   110   100  -7.5  14.8   0.0  0.00  0.61  1.00  0.00  0.00 -0.01  0.00  1.00  0.00  0.00  0.00  0.00 99.90 15.00  70.5   0.0 161.7  1.00  1.00  1.00
 1982  25   111   101  -1.1  14.8   0.0  0.00  0.61  1.00  0.00  0.00 -0.01  0.00  1.00  0.00  0.00  0.00  0.00 99.90 15.00  74.8   0.0 161.7  1.00  1.00  1.00
 1982  26   112   102   1.4  14.8   0.6  0.00  0.60  0.72  0.00  0.00 -0.01  0.00  0.86  0.00  0.00  0.00  0.00 99.90 15.00  79.2   0.0 161.7  1.00  1.00  1.00
 1982  27   113   103   8.1  14.9   3.2  0.00  0.60  0.00  0.00  0.00 -0.01  0.00  0.19  0.00  0.00  0.00  0.00 99.90 15.00  76.8   0.0 161.7  1.00  1.00  1.00
 1982  28   114   104   0.0  14.9   0.0  0.00  0.60  1.00  0.00  0.00 -0.01  0.00  1.00  0.00  0.00  0.00  0.00 99.90 15.00  75.7   0.0 161.1  1.00  1.00  1.00
 1982  29   115   105   5.2  15.0   2.1  0.00  0.59  0.00  0.00  0.00 -0.01  0.00  0.48  0.00  0.00  0.00  0.00 99.90 15.00  76.0   0.0 161.1  1.00  1.00  1.00
 1982  30   116   106   0.0  15.0   0.0  0.00  0.59  1.00  0.00  0.00 -0.01  0.00  1.00  0.00  0.00  0.00  0.00 99.90 15.00  80.6   0.0 161.1  1.00  1.00  1.00
 1982  31   117   107  -7.2  15.0   0.0  0.00  0.59  1.00  0.00  0.00 -0.01  0.00  1.00  0.00  0.00  0.00  0.00 99.90 15.00  78.9   0.0 161.2  1.00  1.00  1.00
 1982  32   118   108  -1.9  15.0   0.0  0.00  0.58  1.00  0.00  0.00 -0.01  0.00  1.00  0.00  0.00  0.00  0.00 99.90 15.00  78.0   0.0 160.0  1.00  1.00  1.00
 1982  33   119   109  -3.9  15.0   0.0  0.00  0.58  1.00  0.00  0.00 -0.01  0.00  1.00  0.00  0.00  0.00  0.00 99.90 15.00  77.9   0.0 159.5  1.00  1.00  1.00
 1982  34   120   110 -13.0  15.0   0.0  0.00  0.57  1.00  0.00  0.00 -0.01  0.00  1.00  0.00  0.00  0.00  0.00 99.90 15.00  77.9   0.0 159.5  1.00  1.00  1.00
 1982  35   121   111 -17.0  15.0   0.0  0.00  0.57  1.00  0.00  0.00 -0.01  0.00  1.00  0.00  0.00  0.00  0.00 99.90 15.00  77.9   0.0 159.5  1.00  1.00  1.00
 1982  36   122   112 -15.5  15.0   0.0  0.00  0.57  1.00  0.00  0.00 -0.01  0.00  1.00  0.00  0.00  0.00  0.00 99.90 15.00  77.8   0.0 159.5  1.00  1.00  1.00
 1982  37   123   113 -13.8  15.0   0.0  0.00  0.56  1.00  0.00  0.00 -0.01  0.00  1.00  0.00  0.00  0.00  0.00 99.90 15.00  77.7   0.0 159.5  1.00  1.00  1.00
 1982  38   124   114  -6.4  15.0   0.0  0.00  0.56  1.00  0.00  0.00 -0.01  0.00  1.00  0.00  0.00  0.00  0.00 99.90 15.00  78.9   0.0 159.5  1.00  1.00  1.00
 1982  39   125   115  -8.1  15.0   0.0  0.00  0.56  1.00  0.00  0.00 -0.01  0.00  1.00  0.00  0.00  0.00  0.00 99.90 15.00  78.4   0.0 159.5  1.00  1.00  1.00
 1982  40   126   116 -14.4  15.0   0.0  0.00  0.55  1.00  0.00  0.00 -0.01  0.00  1.00  0.00  0.00  0.00  0.00 99.90 15.00  78.1   0.0 159.2  1.00  1.00  1.00
 1982  41   127   117 -11.6  15.0   0.0  0.00  0.55  1.00  0.00  0.00 -0.01  0.00  1.00  0.00  0.00  0.00  0.00 99.90 15.00  78.0   0.0 159.0  1.00  1.00  1.00
 1982  42   128   118  -8.9  15.0   0.0  0.00  0.54  1.00  0.00  0.00 -0.01  0.00  1.00  0.00  0.00  0.00  0.00 99.90 15.00  77.7   0.0 159.0  1.00  1.00  1.00
 1982  43   129   119  -2.2  15.0   0.0  0.00  0.54  1.00  0.00  0.00 -0.01  0.00  1.00  0.00  0.00  0.00  0.00 99.90 15.00  87.2   0.0 159.0  1.00  1.00  1.00
 1982  44   130   120  -4.1  15.0   0.0  0.00  0.53  1.00  0.00  0.00 -0.01  0.00  1.00  0.00  0.00  0.00  0.00 99.90 15.00  86.1   0.0 159.0  1.00  1.00  1.00
 1982  45   131   121   2.8  15.0   1.3  0.00  0.53  0.44  0.00  0.00 -0.01  0.00  0.72  0.00  0.00  0.00  0.00 99.90 15.00  85.9   0.0 157.3  1.00  1.00  1.00
 1982  46   132   122   4.7  15.1   2.2  0.00  0.53  0.06  0.00  0.00 -0.01  0.00  0.53  0.00  0.00  0.00  0.00 99.90 15.00  80.8   0.0 154.9  1.00  1.00  1.00
 1982  47   133   123   3.6  15.1   1.7  0.00  0.52  0.28  0.00  0.00 -0.01  0.00  0.64  0.00  0.00  0.00  0.00 99.90 15.00  80.2   0.0 144.7  1.00  1.00  1.00
 1982  48   134   124   2.5  15.1   1.2  0.00  0.52  0.50  0.00  0.00 -0.01  0.00  0.75  0.00  0.00  0.00  0.00 99.90 15.00  79.6   0.0 143.7  1.00  1.00  1.00
 1982  49   135   125   7.0  15.2   3.4  0.00  0.51  0.00  0.00  0.00 -0.01  0.00  0.30  0.00  0.00  0.00  0.00 99.90 15.00  82.5   0.0 142.9  1.00  1.00  1.00
 1982  50   136   126   8.9  15.3   4.4  0.00  0.51  0.00  0.00  0.00 -0.01  0.00  0.11  0.00  0.00  0.00  0.00 99.90 15.00  79.3   0.0 141.9  1.00  1.00  1.00
 1982  51   137   127  11.1  15.4   5.5  0.00  0.50  0.00  0.00  0.00 -0.01  0.00  0.00  0.00  0.00  0.00  0.00 99.90 15.00  77.8   0.0 140.1  1.00  1.00  1.00
 1982  52   138   128  10.0  15.5   5.0  0.00  0.50  0.00  0.00  0.00 -0.01  0.00  0.00  0.00  0.00  0.00  0.00 99.90 15.00  76.3   0.0 140.2  1.00  1.00  1.00
 1982  53   139   129  12.2  15.6   6.2  0.00  0.50  0.00  0.00  0.00 -0.01  0.00  0.00  0.00  0.00  0.00  0.00 99.90 15.00  76.2   0.0 140.5  1.00  1.00  1.00
 1982  54   140   130   9.4  15.7   4.8  0.00  0.49  0.00  0.00  0.00 -0.01  0.00  0.06  0.00  0.00  0.00  0.00 99.90 15.00  76.4   0.0 140.8  1.00  1.00  1.00
 1982  55   141   131   3.3  15.8   1.7  0.00  0.49  0.33  0.00  0.00 -0.01  0.00  0.67  0.00  0.00  0.00  0.00 99.90 15.00  75.7   0.0 141.4  1.00  1.00  1.00
 1982  56   142   132  -1.4  15.8   0.0  0.00  0.48  1.00  0.00  0.00 -0.01  0.00  1.00  0.00  0.00  0.00  0.00 99.90 15.00  75.0   0.0 141.9  1.00  1.00  1.00
 1982  57   143   133  -2.0  15.8   0.0  0.00  0.48  1.00  0.00  0.00 -0.01  0.00  1.00  0.00  0.00  0.00  0.00 99.90 15.00  74.3   0.0 142.4  1.00  1.00  1.00
 1982  58   144   134   1.7  15.8   0.9  0.00  0.47  0.67  0.00  0.00 -0.01  0.00  0.83  0.00  0.00  0.00  0.00 99.90 15.00  73.8   0.0 142.7  1.00  1.00  1.00
 1982  59   145   135   4.7  21.0   2.5  0.00  0.47  0.06  0.00  0.00 -0.01  0.00  0.53  0.00  0.00  0.00  0.00 99.90 15.00  73.4   0.0 142.8  1.00  1.00  1.00
 1982  60   146   136   8.4  21.1   4.5  0.00  0.47  0.00  0.00  0.00 -0.01  0.00  0.16  0.00  0.00  0.00  0.00 99.90 15.00  73.3   0.0 142.9  1.00  1.00  1.00
 1982  61   147   137   8.7  21.1   4.7  0.00  0.46  0.00  0.00  0.00 -0.01  0.00  0.13  0.00  0.00  0.00  0.00 99.90 15.00  73.2   0.0 142.9  1.00  1.00  1.00
 1982  62   148   138  -0.2  21.1   0.0  0.00  0.46  1.00  0.00  0.00 -0.01  0.00  1.00  0.00  0.00  0.00  0.00 99.90 15.00  73.1   0.0 143.0  1.00  1.00  1.00
 1982  63   149   139  -3.7  21.1   0.0  0.00  0.45  1.00  0.00  0.00 -0.01  0.00  1.00  0.00  0.00  0.00  0.00 99.90 15.00  73.0   0.0 143.2  1.00  1.00  1.00
 1982  64   150   140  -4.2  21.1   0.0  0.00  0.45  1.00  0.00  0.00 -0.01  0.00  1.00  0.00  0.00  0.00  0.00 99.90 15.00  72.7   0.0 143.3  1.00  1.00  1.00
 1982  65   151   141  -3.0  21.1   0.0  0.00  0.44  1.00  0.00  0.00 -0.01  0.00  1.00  0.00  0.00  0.00  0.00 99.90 15.00  72.7   0.0 143.4  1.00  1.00  1.00
 1982  66   152   142  -3.0  21.1   0.0  0.00  0.44  1.00  0.00  0.00 -0.01  0.00  1.00  0.00  0.00  0.00  0.00 99.90 15.00  72.3   0.0 143.4  1.00  1.00  1.00
 1982  67   153   143   2.5  21.2   1.4  0.00  0.43  0.50  0.00  0.00 -0.01  0.00  0.75  0.00  0.00  0.00  0.00 99.90 15.00  71.9   0.0 143.4  1.00  1.00  1.00
 1982  68   154   144   1.4  21.2   0.8  0.00  0.43  0.72  0.00  0.00 -0.01  0.00  0.86  0.00  0.00  0.00  0.00 99.90 15.00  71.6   0.0 143.4  1.00  1.00  1.00
 1982  69   155   145  11.1  21.3   6.4  0.00  0.42  0.00  0.00  0.00 -0.01  0.00  0.00  0.00  0.00  0.00  0.00 99.90 15.00  71.8   0.0 143.4  1.00  1.00  1.00
 1982  70   156   146  10.0  21.4   5.8  0.00  0.42  0.00  0.00  0.00 -0.01  0.00  0.00  0.00  0.00  0.00  0.00 99.90 15.00  72.1   0.0 143.4  1.00  1.00  1.00
 1982  71   157   147  12.8  21.5   7.5  0.00  0.42  0.00  0.00  0.00 -0.01  0.00  0.00  0.00  0.00  0.00  0.00 99.90 15.00  72.6   0.0 143.5  1.00  1.00  1.00
 1982  72   158   148   8.0  21.5   4.7  0.00  0.41  0.00  0.00  0.00 -0.01  0.00  0.20  0.00  0.00  0.00  0.00 99.90 14.37  72.8   0.0 143.7  1.00  1.00  1.00
 1982  73   159   149   7.8  21.6   4.6  0.00  0.41  0.00  0.00  0.00 -0.01  0.00  0.22  0.00  0.00  0.00  0.00 99.90 15.00  73.0   0.0 144.0  1.00  1.00  1.00
 1982  74   160   150  10.0  21.7   6.0  0.00  0.40  0.00  0.00  0.00 -0.01  0.00  0.00  0.00  0.00  0.00  0.00 99.90 15.00  93.7   0.0 144.3  1.00  1.00  1.00
 1982  75   161   151  13.0  21.8   7.9  0.00  0.40  0.00  0.00  0.00 -0.01  0.00  0.00  0.00  0.00  0.00  0.00 99.90  8.53  96.9   0.1 144.7  1.00  1.00  1.00
 1982  76   162   152  13.9  21.9   8.4  0.00  0.39  0.00  0.00  0.00 -0.01  0.00  0.00  0.00  0.00  0.00  0.00 99.90  6.80  89.3   0.1 143.8  1.00  1.00  1.00
 1982  77   163   153   9.8  22.0   6.0  0.00  0.39  0.00  0.00  0.00 -0.01  0.00  0.02  0.00  0.00  0.00  0.00 99.90 15.00  88.8   0.0 136.0  1.00  1.00  1.00
 1982  78   164   154  16.1  22.1   9.9  0.00  0.39  0.00  0.00  0.00 -0.01  0.00  0.00  0.00  0.00  0.00  0.00 99.90  5.24  98.9   0.1 135.8  1.00  1.00  1.00
 1982  79   165   155   8.3  22.2   5.1  0.00  0.38  0.00  0.00  0.00 -0.01  0.00  0.17  0.00  0.00  0.00  0.00 99.90  3.98  90.8   0.2 135.1  1.00  1.00  1.00
 1982  80   166   156   2.5  22.2   1.6  0.00  0.38  0.50  0.00  0.00 -0.01  0.00  0.75  0.00  0.00  0.00  0.00 99.90  4.25  87.6   0.2 129.1  1.00  1.00  1.00
 1982  81   167   157   3.9  22.3   2.4  0.00  0.37  0.22  0.00  0.00 -0.01  0.00  0.61  0.00  0.00  0.00  0.00 99.90  3.77  84.7   0.2 129.0  1.00  1.00  1.00
 1982  82   168   158   7.8  22.3   4.9  0.00  0.37  0.00  0.00  0.00 -0.01  0.00  0.22  0.00  0.00  0.00  0.00 99.90  6.81  84.1   0.1 129.5  1.00  1.00  1.00
 1982  83   169   159   6.6  22.4   4.2  0.00  0.36  0.00  0.00  0.00 -0.01  0.00  0.34  0.00  0.00  0.00  0.00 99.90  4.17  83.4   0.2 129.7  1.00  1.00  1.00
 1982  84   170   160   3.9  22.4   2.5  0.00  0.36  0.23  0.00  0.00 -0.01  0.00  0.62  0.00  0.00  0.00  0.00 99.90  3.58  86.7   0.3 129.7  1.00  1.00  1.00
 1982  85   171   161   3.0  22.5   2.0  0.00  0.35  0.39  0.00  0.00 -0.01  0.00  0.69  0.00  0.00  0.00  0.00 99.90  3.64  85.5   0.3 129.7  1.00  1.00  1.00
 1982  86   172   162   5.6  22.5   3.6  0.00  0.35  0.00  0.00  0.00 -0.01  0.00  0.44  0.00  0.00  0.00  0.00 99.90  4.44  84.6   0.3 129.8  1.00  1.00  1.00
 1982  87   173   163   6.9  22.6   4.5  0.00  0.35  0.00  0.00  0.00 -0.01  0.00  0.31  0.00  0.00  0.00  0.00 99.90  6.09  83.9   0.2 129.7  1.00  1.00  1.00
 1982  88   174   164  10.3  22.7   6.8  0.00  0.34  0.00  0.00  0.00 -0.01  0.00  0.00  0.00  0.00  0.00  0.00 99.90  8.31  83.4   0.2 129.5  1.00  1.00  1.00
 1982  89   175   165  15.0  22.9   9.9  0.00  0.34  0.00  0.00  0.00 -0.01  0.00  0.00  0.00  0.00  0.00  0.00 99.90  2.89  84.4   0.5 129.0  0.91  0.90  0.98
 1982  90   176   166  10.9  23.0   7.2  0.00  0.33  0.00  0.00  0.10 -0.01  0.00  0.00  0.00  0.10  0.00  0.10 99.90  2.32  83.4   0.7 128.5  0.89  0.88  0.95
 1982  91   177   167  13.9  23.2   9.3  0.00  0.33  0.00  0.00  0.13 -0.01  0.00  0.00  0.00  0.13  0.00  0.13 99.90  2.28  82.6   0.8 128.1  0.83  0.82  0.93
 1982  92   178   168  17.0  23.3  11.4  0.00  0.33  0.00  0.00  0.19 -0.01  0.00  0.00  0.00  0.19  0.00  0.19 99.90  2.62  82.0   0.8 127.6  0.78  0.78  0.92
 1982  93   179   169   7.5  23.4   5.1  0.00  0.32  0.00  0.00  0.25 -0.01  0.00  0.25  0.00  0.25  0.00  0.25 85.40  2.32  80.8   0.9 127.2  0.80  0.81  0.93
 1982  94   180   170   5.2  23.5   3.6  0.00  0.32  0.00  0.00  0.23 -0.01  0.00  0.48  0.00  0.23  0.00  0.23 99.90  3.09  79.8   0.7 127.0  0.82  0.83  0.94
 1982  95   181   171   3.6  23.6   2.5  0.00  0.31  0.28  0.00  0.21 -0.01  0.00  0.64  0.00  0.21  0.00  0.21 99.90  6.71  85.5   0.3 127.0  0.83  0.85  0.95
 1982  96   182   172  -0.8  23.6   0.0  0.00  0.31  1.00  0.00  0.19 -0.01  0.00  1.00  0.00  0.19  0.00  0.19 99.90  4.79  83.9   0.6 127.1  0.84  0.85  0.96
 1982  97   183   173   3.0  23.7   2.1  0.00  0.31  0.39  0.00  0.18 -0.01  0.00  0.69  0.00  0.18  0.00  0.18 99.90 15.00  83.3   0.2 127.5  0.85  0.87  0.96
 1982  98   184   174   4.4  23.7   3.1  0.00  0.30  0.12  0.00  0.17 -0.01  0.00  0.56  0.00  0.17  0.00  0.17 99.90  6.03  83.0   0.5 127.5  0.86  0.88  0.97
 1982  99   185   175   4.1  23.8   2.9  0.00  0.30  0.17  0.00  0.16 -0.01  0.00  0.59  0.00  0.16  0.00  0.16 79.69  2.78  81.3   1.0 127.3  0.87  0.89  0.97
 1982 100   186   176   8.7  24.0   6.1  0.00  0.29  0.00  0.00  0.15 -0.01  0.00  0.13  0.00  0.15  0.00  0.15 71.86  2.79  79.8   1.1 126.9  0.89  0.92  0.98
 1982 101   187   177  13.6  24.3   9.7  0.00  0.29  0.00  0.00  0.13 -0.01  0.00  0.00  0.00  0.13  0.00  0.13 62.43  2.71  78.5   1.3 125.9  0.86  0.89  0.96
 1982 102   188   178  20.2  24.8  14.5  0.00  0.29  0.00  0.00  0.16 -0.01  0.00  0.02  0.00  0.16  0.00  0.16 45.79  2.21  77.2   1.7 124.9  0.80  0.82  0.94
 1982 103   189   179  16.1  25.1  11.6  0.00  0.28  0.00  0.00  0.23 -0.01  0.00  0.00  0.00  0.23  0.00  0.23 44.06  2.21  75.7   1.7 124.1  0.77  0.79  0.93
 1982 104   190   180  21.1  25.5  15.3  0.00  0.28  0.00  0.00  0.26 -0.01  0.00  0.08  0.00  0.26  0.00  0.26 36.19  1.83  74.1   2.0 123.5  0.73  0.75  0.91
 1982 105   191   181  24.2  26.0  17.6  0.00  0.27  0.00  0.00  0.31 -0.01  0.00  0.28  0.00  0.31  0.00  0.31 44.03  2.38  73.1   1.7 123.0  0.72  0.75  0.91
 1982 106   192   182  18.4  26.3  13.4  0.00  0.27  0.00  0.00  0.32 -0.01  0.00  0.00  0.00  0.32  0.00  0.32 97.57  5.54  72.8   0.7 122.5  0.72  0.76  0.90
 1982 107   193   183  10.0  26.5   7.3  0.00  0.27  0.00  0.00  0.32 -0.01  0.00  0.00  0.00  0.32  0.00  0.32 34.05  2.02  70.8   2.1 122.1  0.71  0.76  0.89
 1982 108   194   184  12.2  26.8   9.0  0.00  0.26  0.00  0.00  0.33 -0.01  0.00  0.00  0.00  0.33  0.00  0.33 31.97  1.80  68.9   2.2 121.8  0.71  0.75  0.88
 1982 109   195   185  15.3  27.2  11.3  0.00  0.26  0.00  0.00  0.34 -0.01  0.00  0.00  0.00  0.34  0.00  0.34 30.96  1.60  69.7   2.2 121.3  0.69  0.74  0.87
 1982 110   196   186   6.7  27.2   6.6  0.00  0.00  0.00  0.00  0.35 -0.01  0.00  0.33  0.00  0.35  0.00  0.35 33.76  2.44  67.4   2.0 120.9  0.71  0.76  0.88
 1982 111   197   187   7.0  27.2   7.0  0.00  0.00  0.00  0.00  0.33 -0.01  0.00  0.30  0.00  0.33  0.00  0.33 34.65  2.09  65.4   1.9 120.4  0.73  0.77  0.87
 1982 112   198   188   8.6  27.2   8.6  0.00  0.00  0.00  0.00  0.31 -0.01  0.00  0.14  0.00  0.31  0.00  0.31 27.07  1.70  63.1   2.3 119.8  0.73  0.76  0.87
 1982 113   199   189  11.7  27.2  11.7  0.00  0.00  0.00  0.00  0.31 -0.01  0.00  0.00  0.00  0.31  0.00  0.31 27.55  1.85  61.1   2.2 119.2  0.72  0.73  0.86
 1982 114   200   190  16.4  27.2  16.4  0.00  0.00  0.00  0.00  0.32 -0.01  0.00  0.00  0.00  0.32  0.00  0.32 27.35  1.96  59.3   2.2 118.7  0.71  0.69  0.86
 1982 115   201   191  13.1  27.2  13.1  0.00  0.00  0.00  0.00  0.34 -0.01  0.00  0.00  0.00  0.34  0.00  0.34 46.08  3.43  58.8   1.3 118.2  0.70  0.67  0.86
 1982 116   202   192  14.1  30.4  14.1  0.00  0.00  0.00  0.00  0.35 -0.01  0.00  0.00  0.00  0.35  0.00  0.35 19.60  1.55  56.2   2.9 117.7  0.69  0.64  0.85
 1982 117   203   193  10.6  30.9  10.6  0.00  0.00  0.00  0.00  0.36 -0.01  0.00  0.00  0.00  0.36  0.00  0.36 70.45  4.87  55.8   0.8 117.2  0.70  0.64  0.85
 1982 118   204   194   8.4  31.3   8.4  0.00  0.00  0.00  0.00  0.35 -0.01  0.00  0.16  0.00  0.35  0.00  0.35 99.90 15.00  59.6   0.1 116.8  0.72  0.66  0.86
 1982 119   205   195  10.0  31.8  10.0  0.00  0.00  0.00  0.00  0.33 -0.01  0.00  0.00  0.00  0.33  0.00  0.33 99.90  7.98  74.8   0.7 116.4  0.73  0.68  0.87
 1982 120   206   196  13.9  32.4  13.9  0.00  0.00  0.00  0.00  0.31 -0.01  0.00  0.00  0.00  0.31  0.00  0.31 59.65  6.71  73.8   1.2 115.6  0.77  0.73  0.88
 1982 121   207   197  16.1  33.2  16.1  0.00  0.00  0.00  0.00  0.27 -0.01  0.00  0.00  0.00  0.27  0.00  0.27 41.33  4.77  71.8   1.7 113.9  0.80  0.78  0.89
 1982 122   208   198  18.0  34.0  18.0  0.00  0.00  0.00  0.00  0.23 -0.01  0.00  0.00  0.00  0.23  0.00  0.23 29.51  3.56  69.3   2.3 112.0  0.82  0.80  0.89
 1982 123   209   199  22.0  35.1  22.0  0.00  0.00  0.00  0.00  0.21 -0.01  0.00  0.13  0.00  0.21  0.00  0.21 22.56  2.89  66.6   3.0 110.5  0.82  0.78  0.89
 1982 124   210   200  24.5  36.2  24.5  0.00  0.00  0.00  0.00  0.21 -0.01  0.00  0.30  0.00  0.21  0.00  0.21 17.26  2.38  63.4   3.7 109.3  0.83  0.76  0.89
 1982 125   211   201  18.0  37.1  18.0  0.00  0.00  0.00  0.00  0.20 -0.01  0.00  0.00  0.00  0.20  0.00  0.20 81.98  9.25  63.1   0.8 108.6  0.85  0.78  0.89
 1982 126   212   202  10.9  37.6  10.9  0.00  0.00  0.00  0.00  0.17 -0.01  0.00  0.00  0.00  0.17  0.00  0.17 53.86  3.96  93.5   1.7 108.0  0.86  0.78  0.89
 1982 127   213   203  14.4  38.2  14.4  0.00  0.00  0.00  0.00  0.17 -0.01  0.00  0.00  0.00  0.17  0.00  0.17 25.01  3.18  92.3   3.7 107.6  0.88  0.80  0.90
 1982 128   214   204  20.5  39.2  20.5  0.00  0.00  0.00  0.00  0.15 -0.01  0.00  0.04  0.00  0.15  0.00  0.15 20.35  2.86  87.9   4.3 106.3  0.89  0.81  0.89
 1982 129   215   205  22.5  40.3  22.5  0.00  0.00  0.00  0.00  0.13 -0.01  0.00  0.17  0.00  0.13  0.00  0.13 20.56  3.17  83.9   4.1 105.0  0.90  0.81  0.89
 1982 130   216   206  22.5  41.5  22.5  0.00  0.00  0.00  0.00  0.11 -0.01  0.00  0.17  0.00  0.11  0.00  0.11 26.83  4.46  81.2   3.0 104.1  0.93  0.89  0.90
 1982 131   217   207  22.0  42.6  22.0  0.00  0.00  0.00  0.00  0.08 -0.01  0.00  0.13  0.00  0.08  0.00  0.08 21.24  3.73  78.8   3.7 103.5  0.96  0.95  0.92
 1982 132   218   208  18.9  43.6  18.9  0.00  0.00  0.00  0.00  0.04 -0.01  0.00  0.00  0.00  0.04  0.00  0.04 66.58  9.08 104.7   1.6 102.9  0.99  0.98  0.92
 1982 133   219   209  20.0  44.7  20.0  0.00  0.00  0.00  0.00  0.01 -0.01  0.00  0.00  0.00  0.01  0.00  0.01 60.85  8.47 103.6   1.7 103.2  1.00  1.00  0.93
 1982 134   220   210  17.8  45.6  17.8  0.00  0.00  0.00  0.00  0.00 -0.01  0.00  0.00  0.00  0.00  0.00  0.00 59.08  8.36 102.9   1.7 103.6  1.00  1.00  0.94
 1982 135   221   211  17.8  46.5  17.8  0.00  0.00  0.00  0.00  0.00 -0.01  0.00  0.00  0.00  0.00  0.00  0.00 27.49  3.67 110.1   4.0 104.4  1.00  1.00  0.95
 1982 136   222   212  19.5  47.6  19.5  0.00  0.00  0.00  0.00  0.00 -0.01  0.00  0.00  0.00  0.00  0.00  0.00 63.30  8.67 110.5   1.7 104.9  1.00  1.00  0.96
 1982 137   223   213  19.5  48.6  19.5  0.00  0.00  0.00  0.00  0.00 -0.01  0.00  0.00  0.00  0.00  0.00  0.00 44.76  6.05 112.7   2.5 105.5  1.00  1.00  0.97
 1982 138   224   214  20.3  49.7  20.3  0.00  0.00  0.00  0.00  0.00 -0.01  0.00  0.02  0.00  0.00  0.00  0.00 28.06  3.94 109.9   3.9 106.2  1.00  1.00  0.97
 1982 139   225   215  23.6  53.4  23.6  0.00  0.00  0.00  0.00  0.00 -0.01  0.00  0.24  0.00  0.00  0.00  0.00 27.36  4.09 105.5   3.9 106.8  1.00  1.00  0.98
 1982 140   226   216  21.1  57.6  21.1  0.00  0.00  0.00  0.00  0.00 -0.01  0.00  0.07  0.00  0.00  0.00  0.00 47.64  7.39 103.3   2.2 107.4  1.00  1.00  0.99
 1982 141   227   217  18.0  63.1  18.0  0.00  0.00  0.00  0.00  0.00 -0.01  0.00  0.00  0.00  0.00  0.00  0.00 41.32  5.37 123.9   3.0 108.1  1.00  1.00  0.99
 1982 142   228   218  16.1  70.2  16.1  0.00  0.00  0.00  0.00  0.00 -0.01  0.00  0.00  0.00  0.00  0.00  0.00 52.49  6.98 121.8   2.3 108.7  1.00  1.00  0.99
 1982 143   229   219  18.0  71.6  18.0  0.00  0.00  0.00  0.00  0.00 -0.01  0.00  0.00  0.00  0.00  0.00  0.00 35.61  4.90 117.7   3.3 109.4  1.00  1.00  1.00
 1982 144   230   220  18.7  73.0  18.7  0.00  0.00  0.00  0.00  0.00 -0.01  0.00  0.00  0.00  0.00  0.00  0.00 89.42 12.41 116.6   1.3 110.1  1.00  1.00  1.00
 1982 145   231   221  20.0  74.5  20.0  0.00  0.00  0.00  0.00  0.00 -0.01  0.00  0.00  0.00  0.00  0.00  0.00 66.45  8.10 131.9   2.0 110.8  1.00  1.00  1.00
 1982 146   232   222  16.4  75.8  16.4  0.00  0.00  0.00  0.00  0.00 -0.01  0.00  0.00  0.00  0.00  0.00  0.00 43.90  4.76 149.8   3.4 111.3  1.00  1.00  1.00
 1982 147   233   223  18.4  77.2  18.4  0.00  0.00  0.00  0.00  0.00 -0.01  0.00  0.00  0.00  0.00  0.00  0.00 36.86  4.12 146.8   4.0 110.2  1.00  1.00  1.00
 1982 148   234   224  23.3  79.0  23.3  0.00  0.00  0.00  0.00  0.00 -0.01  0.00  0.22  0.00  0.00  0.00  0.00 57.23  6.88 136.2   2.4 107.3  1.00  1.00  1.00
 1982 149   235   225  21.4  80.2  21.4  0.00  0.00  0.00  0.00  0.00 -0.01  0.00  0.09  0.00  0.00  0.00  0.00 46.33  4.86 155.3   3.4  97.8  1.00  1.00  1.00
 1982 150   236   226  20.5  80.6  20.5  0.00  0.00  0.00  0.00  0.00 -0.01  0.00  0.04  0.00  0.00  0.00  0.00 58.86  6.44 148.4   2.5  93.5  1.00  1.00  1.00
 1982 151   237   227  17.8  80.9  17.8  0.00  0.00  0.00  0.00  0.00 -0.01  0.00  0.00  0.00  0.00  0.00  0.00 80.14  8.43 153.7   1.9  88.2  1.00  1.00  1.00
 1982 152   238   228  12.8  81.2  12.8  0.00  0.00  0.00  0.00  0.00 -0.01  0.00  0.00  0.00  0.00  0.00  0.00 40.16  4.65 139.0   3.5  83.1  1.00  1.00  1.00
 1982 153   239   229  15.2  81.5  15.2  0.00  0.00  0.00  0.00  0.00 -0.01  0.00  0.00  0.00  0.00  0.00  0.00 99.90 11.85 137.6   1.4  74.2  1.00  1.00  1.00
 1982 154   240   230  15.0  81.8  15.0  0.00  0.00  0.00  0.00  0.00 -0.01  0.00  0.00  0.00  0.00  0.00  0.00 99.90 15.00 137.8   0.9  72.2  1.00  1.00  1.00
 1982 155   241   231  17.0  82.1  17.0  0.00  0.00  0.00  0.00  0.00 -0.01  0.00  0.00  0.00  0.00  0.00  0.00 73.96  8.50 138.0   1.9  71.3  0.99  1.00  0.95
 1982 156   242   232  17.8  82.5  17.8  0.00  0.00  0.00  0.00  0.01 -0.01  0.00  0.00  0.00  0.01  0.00  0.01 47.34  5.56 134.4   2.8  70.9  1.00  1.00  0.91
 1982 157   243   233  25.5  83.0  25.5  0.00  0.00  0.05  0.00  0.00 -0.01  0.00  0.37  0.00  0.00  0.00  0.00 45.45  5.46 131.0   2.9  69.7  0.91  0.99  0.87
 1982 158   244   234  20.2  83.4  20.2  0.00  0.00  0.00  0.00  0.13 -0.01  0.00  0.02  0.00  0.13  0.00  0.13 39.11  4.39 139.5   3.6  69.4  0.84  0.98  0.85
 1982 159   245   235  25.8  83.9  25.8  0.00  0.00  0.08  0.00  0.22 -0.01  0.00  0.39  0.00  0.22  0.00  0.22 42.80  4.93 135.7   3.2  69.0  0.75  0.96  0.83
 1982 160   246   236  22.8  84.4  22.8  0.00  0.00  0.00  0.00  0.34 -0.01  0.00  0.18  0.00  0.34  0.00  0.34 42.32  4.40 149.5   3.5  68.2  0.68  0.95  0.81
 1982 161   247   237  16.4  84.7  16.4  0.00  0.00  0.00  0.00  0.45 -0.01  0.00  0.00  0.00  0.45  0.00  0.45 40.49  4.40 142.4   3.5  67.9  0.63  0.95  0.80
 1982 162   248   238  18.0  85.1  18.0  0.00  0.00  0.00  0.00  0.53 -0.01  0.00  0.00  0.00  0.53  0.00  0.53 99.90 11.50 140.7   1.3  66.5  0.57  0.94  0.79
 1982 163   249   239  19.8  85.5  19.8  0.00  0.00  0.00  0.00  0.61 -0.01  0.00  0.00  0.00  0.61  0.00  0.61 58.25  6.52 136.5   2.3  66.4  0.53  0.94  0.78
 1982 164   250   240  20.9  85.9  20.9  0.00  0.00  0.00  0.00  0.68 -0.01  0.00  0.06  0.00  0.68  0.00  0.68 99.90 15.00 135.8   0.9  65.7  0.00  0.94  0.77
 1982 165   251   241  23.9  86.4  23.9  0.00  0.00  0.00  0.00  0.00 -0.01  0.00  0.26  0.00  0.00  0.00  0.00 99.90 15.00 135.6   0.0  65.6  0.00  0.94  0.77
 1982 166   252   242  22.5  86.8  22.5  0.00  0.00  0.00  0.00  0.00 -0.01  0.00  0.17  0.00  0.00  0.00  0.00 99.90 15.00 153.3   0.0  65.3  0.00  0.95  0.77
 1982 167   253   243  18.6  87.2  18.6  0.00  0.00  0.00  0.00  0.00 -0.01  0.00  0.00  0.00  0.00  0.00  0.00 99.90 15.00 148.6   0.0  65.1  0.00  0.95  0.76
 1982 168   254   244  21.1  87.6  21.1  0.00  0.00  0.00  0.00  0.00 -0.01  0.00  0.07  0.00  0.00  0.00  0.00 99.90 15.00 143.3   0.0  64.7  0.00  0.96  0.76
 1982 169   255   245  21.1  88.0  21.1  0.00  0.00  0.00  0.00  0.00 -0.01  0.00  0.07  0.00  0.00  0.00  0.00 99.90 15.00 139.9   0.0  64.5  0.00  0.96  0.76
 1982 170   256   246  19.2  88.4  19.2  0.00  0.00  0.00  0.00  0.00 -0.01  0.00  0.00  0.00  0.00  0.00  0.00 99.90 15.00 139.1   0.0  64.0  0.00  0.97  0.76
 1982 171   257   247  22.8  88.9  22.8  0.00  0.00  0.00  0.00  0.00 -0.01  0.00  0.18  0.00  0.00  0.00  0.00 99.90 15.00 138.3   0.0  64.0  0.00  0.98  0.76
 1982 172   258   248  22.2  89.3  22.2  0.00  0.00  0.00  0.00  0.00 -0.01  0.00  0.15  0.00  0.00  0.00  0.00 99.90 15.00 137.6   0.0  63.4  0.00  0.99  0.76
 1982 173   259   249  20.8  89.7  20.8  0.00  0.00  0.00  0.00  0.00 -0.01  0.00  0.06  0.00  0.00  0.00  0.00 99.90 15.00 148.8   0.0  63.1  0.00  0.99  0.76
 1982 174   260   250  21.7  90.4  21.7  0.00  0.00  0.00  0.00  0.00 -0.01  0.00  0.11  0.00  0.00  0.00  0.00 99.90 15.00 145.7   0.0  63.1  0.00  1.00  0.76

*DSSAT Cropping System Model Ver. 4.5.1.023 -Stub         OCT 13, 2014; 10:45:28
                                                                                
*RUN   2        : DRYLAND  - 60 KG N/HA     CSCER045 KSAS8101    2              
 MODEL          : CSCER045 - Wheat                                              
 EXPERIMENT     : KSAS8101 WH                                                   
 DATA PATH      :                                                               
 TREATMENT  2   : DRYLAND  - 60 KG N/HA     CSCER045                            
  
!........DATES.......  TEMP STAGE  ...PHENOLOGY....  .......PHOTOSYNTHESIS.......  .....GROWTH.....  ..TILLERS. WATER STRESS DETERMINANTS N STRESS DETERMINANTS       
@YEAR DOY   DAS   DAP TMEAN  GSTD    DU VRNFD DYLFD  TFPD  WFPD  NFPD CO2FD RSFPD  TFGD  WFGD  NFGD  WFTD  NFTD WAVRD WUPRD  SWXD  EOPD  SNXD LN%RD SN%RD RN%RD      
 1981 289    10     0  12.8   0.0  12.8  1.00  0.00  0.00  0.00  0.00 -0.01  0.00  0.00  0.00  0.00  0.00  0.00 99.90  1.00   7.4   0.0 180.6  0.00  0.00  0.00
 1981 290    11     1  16.1   5.6   0.0  1.00  0.00  0.00  0.00  0.00 -0.01  0.00  0.00  0.00  0.00  0.00  0.00 99.90  1.00   8.7   0.0 241.2  0.00  0.00  0.00
 1981 291    12     2   9.4   6.5   0.0  0.98  0.00  0.00  0.00  0.00 -0.01  0.00  0.06  0.00  0.00  0.00  0.00 99.90  1.00   9.9   0.0 241.8  0.00  0.00  1.00
 1981 292    13     3  12.2   7.8   0.2  0.98  0.00  0.00  0.00  0.00 -0.01  0.00  0.00  0.00  0.00  0.00  0.00 99.90  1.00  11.8   0.0 242.3  0.00  0.00  1.00
 1981 293    14     4  17.5   9.7   0.4  0.98  0.00  0.00  0.00  0.00 -0.01  0.00  0.00  0.00  0.00  0.00  0.00 99.90  1.00  14.9   0.0 242.9  0.00  0.00  1.00
 1981 294    15     5  11.7  10.0   0.3  0.97  0.00  0.00  0.00  0.00 -0.01  0.00  0.00  0.00  0.00  0.00  0.00 99.90  1.00  16.8   0.0 243.6  0.00  0.00  1.00
 1981 295    16     6   6.2  10.1   0.1  0.95  0.50  0.00  0.00  0.00 -0.01  0.00  0.38  0.00  0.00  0.00  0.00 99.90  1.00  17.4   0.0 244.2  1.00  0.00  1.00
 1981 296    17     7   1.9  10.1   0.1  0.92  0.50  0.61  0.00  0.00 -0.01  0.00  0.81  0.00  0.00  0.00  0.00 99.90 15.00  17.1   0.0 244.9  0.99  0.00  1.00
 1981 297    18     8   6.1  10.2   0.2  0.90  0.51  0.00  0.00  0.01 -0.01  0.00  0.39  0.00  0.01  0.00  0.01 99.90 15.00  17.8   0.0 245.5  0.99  0.00  1.00
 1981 298    19     9   8.4  10.3   0.4  0.88  0.51  0.00  0.00  0.01 -0.01  0.00  0.16  0.00  0.01  0.00  0.01 99.90 15.00  21.5   0.0 246.1  0.99  0.00  1.00
 1981 299    20    10   7.8  10.4   0.4  0.86  0.52  0.00  0.00  0.01 -0.01  0.00  0.22  0.00  0.01  0.00  0.01 99.90 14.83  22.8   0.0 246.5  0.99  0.00  1.00
 1981 300    21    11  13.7  10.6   0.9  0.86  0.52  0.00  0.00  0.01 -0.01  0.00  0.00  0.00  0.01  0.00  0.01 99.90  9.83  24.4   0.0 246.8  1.00  0.10  1.00
 1981 301    22    12  16.2  10.8   1.1  0.86  0.53  0.00  0.00  0.00 -0.01  0.00  0.00  0.00  0.00  0.00  0.00 99.90  7.11  26.4   0.0 247.1  1.00  0.25  1.00
 1981 302    23    13  17.5  11.0   1.2  0.86  0.53  0.00  0.00  0.00 -0.01  0.00  0.00  0.00  0.00  0.00  0.00 99.90  5.31  28.7   0.0 247.4  1.00  0.37  1.00
 1981 303    24    14  16.1  11.2   1.1  0.86  0.53  0.00  0.00  0.00 -0.01  0.00  0.00  0.00  0.00  0.00  0.00 99.90 15.00  30.9   0.0 247.8  1.00  0.48  1.00
 1981 304    25    15  13.9  11.4   0.9  0.86  0.54  0.00  0.00  0.00 -0.01  0.00  0.00  0.00  0.00  0.00  0.00 99.90 15.00  33.4   0.0 248.3  1.00  0.54  1.00
 1981 305    26    16  12.2  11.6   0.8  0.85  0.54  0.00  0.00  0.00 -0.01  0.00  0.00  0.00  0.00  0.00  0.00 99.90 15.00  51.4   0.0 248.8  1.00  0.59  1.00
 1981 306    27    17  10.2  11.7   0.7  0.83  0.55  0.00  0.00  0.00 -0.01  0.00  0.00  0.00  0.00  0.00  0.00 99.90 15.00  53.0   0.0 249.5  1.00  0.62  1.00
 1981 307    28    18  11.4  11.9   0.8  0.82  0.55  0.00  0.00  0.00 -0.01  0.00  0.00  0.00  0.00  0.00  0.00 99.90  7.31  52.2   0.0 250.1  1.00  0.66  1.00
 1981 308    29    19  10.2  12.0   0.8  0.81  0.56  0.00  0.00  0.00 -0.01  0.00  0.00  0.00  0.00  0.00  0.00 99.90 12.62  56.8   0.0 250.6  1.00  0.69  1.00
 1981 309    30    20  10.6  12.1   0.9  0.80  0.56  0.00  0.00  0.00 -0.01  0.00  0.00  0.00  0.00  0.00  0.00 99.90  3.44  55.7   0.1 251.2  1.00  0.72  1.00
 1981 310    31    21   6.7  12.2   0.6  0.78  0.56  0.00  0.00  0.00 -0.01  0.00  0.33  0.00  0.00  0.00  0.00 99.90  3.65  52.3   0.1 251.6  1.00  0.73  1.00
 1981 311    32    22   9.7  12.3   0.9  0.76  0.57  0.00  0.00  0.00 -0.01  0.00  0.03  0.00  0.00  0.00  0.00 99.90  5.03  51.9   0.1 243.1  1.00  0.76  1.00
 1981 312    33    23  10.9  12.4   1.1  0.75  0.57  0.00  0.00  0.00 -0.01  0.00  0.00  0.00  0.00  0.00  0.00 99.90 15.00  61.2   0.0 241.4  1.00  0.78  1.00
 1981 313    34    24   2.5  12.4   0.3  0.73  0.57  0.50  0.00  0.00 -0.01  0.00  0.75  0.00  0.00  0.00  0.00 99.90  4.52  60.1   0.1 240.6  1.00  0.77  1.00
 1981 314    35    25   5.6  12.5   0.6  0.71  0.58  0.00  0.00  0.00 -0.01  0.00  0.44  0.00  0.00  0.00  0.00 99.90  4.45  55.8   0.1 238.0  1.00  0.79  1.00
 1981 315    36    26   7.5  12.6   0.9  0.69  0.58  0.00  0.00  0.00 -0.01  0.00  0.25  0.00  0.00  0.00  0.00 99.90  4.74  54.4   0.1 225.7  1.00  0.80  1.00
 1981 316    37    27  10.9  12.7   1.4  0.67  0.59  0.00  0.00  0.00 -0.01  0.00  0.00  0.00  0.00  0.00  0.00 99.90  4.67  53.8   0.1 223.0  1.00  0.83  1.00
 1981 317    38    28  10.6  12.8   1.4  0.66  0.59  0.00  0.00  0.00 -0.01  0.00  0.00  0.00  0.00  0.00  0.00 99.90  4.86  53.2   0.1 223.3  1.00  0.85  1.00
 1981 318    39    29  13.0  12.9   1.8  0.66  0.59  0.00  0.00  0.00 -0.01  0.00  0.00  0.00  0.00  0.00  0.00 99.90  6.54  53.3   0.1 223.6  1.00  0.87  1.00
 1981 319    40    30  15.0  13.1   2.1  0.66  0.60  0.00  0.00  0.00 -0.01  0.00  0.00  0.00  0.00  0.00  0.00 99.90  5.75  53.3   0.1 223.9  1.00  0.89  1.00
 1981 320    41    31  17.5  13.3   2.4  0.66  0.60  0.00  0.00  0.00 -0.01  0.00  0.00  0.00  0.00  0.00  0.00 99.90  4.22  53.9   0.2 224.3  1.00  0.91  1.00
 1981 321    42    32  12.8  13.4   1.7  0.65  0.60  0.00  0.00  0.00 -0.01  0.00  0.00  0.00  0.00  0.00  0.00 99.90  4.70  54.1   0.2 224.7  1.00  0.93  1.00
 1981 322    43    33  14.1  13.5   1.9  0.65  0.61  0.00  0.00  0.00 -0.01  0.00  0.00  0.00  0.00  0.00  0.00 99.90  7.24  54.6   0.1 225.2  1.00  0.94  1.00
 1981 323    44    34   4.1  13.6   0.6  0.63  0.61  0.17  0.00  0.00 -0.01  0.00  0.59  0.00  0.00  0.00  0.00 99.90 15.00  54.6   0.0 225.7  1.00  0.94  1.00
 1981 324    45    35   0.0  13.6   0.0  0.60  0.61  1.00  0.00  0.00 -0.01  0.00  1.00  0.00  0.00  0.00  0.00 99.90 10.72  54.0   0.1 226.4  1.00  0.95  1.00
 1981 325    46    36   2.5  13.6   0.4  0.58  0.62  0.50  0.00  0.00 -0.01  0.00  0.75  0.00  0.00  0.00  0.00 99.90  5.55  53.5   0.1 227.0  1.00  0.95  1.00
 1981 326    47    37   7.0  13.7   1.1  0.56  0.62  0.00  0.00  0.00 -0.01  0.00  0.30  0.00  0.00  0.00  0.00 99.90  6.75  53.5   0.1 227.4  1.00  0.95  1.00
 1981 327    48    38  10.6  13.8   1.8  0.55  0.62  0.00  0.00  0.00 -0.01  0.00  0.00  0.00  0.00  0.00  0.00 99.90  4.88  53.8   0.2 227.6  1.00  0.96  1.00
 1981 328    49    39   6.4  13.9   1.1  0.52  0.62  0.00  0.00  0.00 -0.01  0.00  0.36  0.00  0.00  0.00  0.00 99.90  6.15  53.8   0.1 227.7  1.00  0.97  1.00
 1981 329    50    40  12.2  14.0   2.2  0.52  0.63  0.00  0.00  0.00 -0.01  0.00  0.00  0.00  0.00  0.00  0.00 99.90  5.12  54.4   0.2 227.9  1.00  0.97  1.00
 1981 330    51    41   6.7  14.1   1.2  0.49  0.63  0.00  0.00  0.00 -0.01  0.00  0.33  0.00  0.00  0.00  0.00 99.90  8.27  54.5   0.1 227.9  1.00  0.98  1.00
 1981 331    52    42  -0.8  14.1   0.0  0.48  0.63  1.00  0.00  0.00 -0.01  0.00  1.00  0.00  0.00  0.00  0.00 99.90 11.32  54.1   0.1 228.2  1.00  0.98  1.00
 1981 332    53    43   2.5  14.1   0.5  0.45  0.64  0.50  0.00  0.00 -0.01  0.00  0.75  0.00  0.00  0.00  0.00 99.90 10.78  54.1   0.1 228.6  1.00  0.98  1.00
 1981 333    54    44   3.0  14.1   0.6  0.43  0.64  0.39  0.00  0.00 -0.01  0.00  0.70  0.00  0.00  0.00  0.00 99.90 12.39  54.2   0.1 228.9  1.00  0.98  1.00
 1981 334    55    45   5.9  14.2   1.2  0.41  0.64  0.00  0.00  0.00 -0.01  0.00  0.41  0.00  0.00  0.00  0.00 99.90 15.00  73.4   0.0 229.1  1.00  0.98  1.00
 1981 335    56    46   2.2  14.2   0.5  0.39  0.64  0.56  0.00  0.00 -0.01  0.00  0.78  0.00  0.00  0.00  0.00 99.90 15.00  79.5   0.0 229.2  1.00  0.99  1.00
 1981 336    57    47   3.6  14.2   0.8  0.36  0.64  0.28  0.00  0.00 -0.01  0.00  0.64  0.00  0.00  0.00  0.00 99.90  8.62  73.4   0.1 228.4  1.00  0.99  1.00
 1981 337    58    48   4.5  14.3   1.0  0.34  0.65  0.11  0.00  0.00 -0.01  0.00  0.55  0.00  0.00  0.00  0.00 99.90  7.07  71.0   0.2 219.5  1.00  0.99  1.00
 1981 338    59    49   3.9  14.3   0.9  0.32  0.65  0.22  0.00  0.00 -0.01  0.00  0.61  0.00  0.00  0.00  0.00 99.90  7.51  70.1   0.2 217.5  1.00  0.99  1.00
 1981 339    60    50   3.9  14.4   0.9  0.30  0.65  0.22  0.00  0.00 -0.01  0.00  0.61  0.00  0.00  0.00  0.00 99.90 15.00  70.0   0.1 217.6  1.00  0.99  1.00
 1981 340    61    51   8.9  14.5   2.2  0.28  0.65  0.00  0.00  0.00 -0.01  0.00  0.11  0.00  0.00  0.00  0.00 99.90  9.75  69.7   0.1 217.7  1.00  1.00  1.00
 1981 341    62    52  11.7  14.6   2.9  0.27  0.65  0.00  0.00  0.00 -0.01  0.00  0.00  0.00  0.00  0.00  0.00 99.90  7.15  69.4   0.2 217.8  1.00  1.00  1.00
 1981 342    63    53   3.7  14.6   0.9  0.25  0.66  0.27  0.00  0.00 -0.01  0.00  0.63  0.00  0.00  0.00  0.00 99.90 10.24  68.7   0.1 217.8  1.00  1.00  1.00
 1981 343    64    54   2.2  14.7   0.6  0.23  0.66  0.55  0.00  0.00 -0.01  0.00  0.77  0.00  0.00  0.00  0.00 99.90 10.23  67.8   0.1 218.2  1.00  1.00  1.00
 1981 344    65    55  -0.3  14.7   0.0  0.21  0.66  1.00  0.00  0.00 -0.01  0.00  1.00  0.00  0.00  0.00  0.00 99.90 15.00  67.7   0.0 218.5  1.00  1.00  1.00
 1981 345    66    56   2.5  14.7   0.7  0.18  0.66  0.50  0.00  0.00 -0.01  0.00  0.75  0.00  0.00  0.00  0.00 99.90 15.00  67.8   0.0 218.8  1.00  1.00  1.00
 1981 346    67    57   2.8  14.7   0.8  0.16  0.66  0.44  0.00  0.00 -0.01  0.00  0.72  0.00  0.00  0.00  0.00 99.90 15.00  67.9   0.0 219.0  1.00  1.00  1.00
 1981 347    68    58   2.5  14.7   0.7  0.14  0.66  0.50  0.00  0.00 -0.01  0.00  0.75  0.00  0.00  0.00  0.00 99.90 15.00  68.0   0.0 219.2  1.00  1.00  1.00
 1981 348    69    59   0.5  14.7   0.2  0.12  0.66  0.89  0.00  0.00 -0.01  0.00  0.94  0.00  0.00  0.00  0.00 99.90 15.00  68.0   0.1 219.3  1.00  1.00  1.00
 1981 349    70    60   0.0  14.7   0.0  0.10  0.66  1.00  0.00  0.00 -0.01  0.00  1.00  0.00  0.00  0.00  0.00 99.90 15.00  67.7   0.0 219.3  1.00  1.00  1.00
 1981 350    71    61  -4.7  14.7   0.0  0.09  0.66  1.00  0.00  0.00 -0.01  0.00  1.00  0.00  0.00  0.00  0.00 99.90 15.00  67.7   0.0 219.4  1.00  1.00  1.00
 1981 351    72    62 -12.5  14.7   0.0  0.07  0.67  1.00  0.00  0.00 -0.01  0.00  1.00  0.00  0.00  0.00  0.00 99.90 15.00  67.7   0.0 219.4  1.00  1.00  1.00
 1981 352    73    63 -13.6  14.7   0.0  0.05  0.67  1.00  0.00  0.00 -0.01  0.00  1.00  0.00  0.00  0.00  0.00 99.90 15.00  67.6   0.0 219.5  1.00  1.00  1.00
 1981 353    74    64 -11.4  14.7   0.0  0.03  0.67  1.00  0.00  0.00 -0.01  0.00  1.00  0.00  0.00  0.00  0.00 99.90 15.00  67.5   0.0 219.5  1.00  1.00  1.00
 1981 354    75    65  -4.2  14.7   0.0  0.01  0.67  1.00  0.00  0.00 -0.01  0.00  1.00  0.00  0.00  0.00  0.00 99.90 15.00  70.1   0.0 219.5  1.00  1.00  1.00
 1981 355    76    66   2.0  14.8   0.6  0.00  0.67  0.61  0.00  0.00 -0.01  0.00  0.81  0.00  0.00  0.00  0.00 99.90 15.00  72.3   0.0 219.5  1.00  1.00  1.00
 1981 356    77    67   1.7  14.8   0.6  0.00  0.67  0.66  0.00  0.00 -0.01  0.00  0.83  0.00  0.00  0.00  0.00 99.90 15.00  72.3   0.0 219.5  1.00  1.00  1.00
 1981 357    78    68  -1.1  14.8   0.0  0.00  0.67  1.00  0.00  0.00 -0.01  0.00  1.00  0.00  0.00  0.00  0.00 99.90 15.00  71.3   0.0 219.5  1.00  1.00  1.00
 1981 358    79    69  -0.3  14.8   0.0  0.00  0.67  1.00  0.00  0.00 -0.01  0.00  1.00  0.00  0.00  0.00  0.00 99.90 15.00  70.2   0.0 219.5  1.00  1.00  1.00
 1981 359    80    70   1.6  14.8   0.6  0.00  0.67  0.67  0.00  0.00 -0.01  0.00  0.84  0.00  0.00  0.00  0.00 99.90 15.00  69.4   0.0 219.6  1.00  1.00  1.00
 1981 360    81    71  -1.7  14.8   0.0  0.00  0.67  1.00  0.00  0.00 -0.01  0.00  1.00  0.00  0.00  0.00  0.00 99.90 15.00  68.8   0.0 219.6  1.00  1.00  1.00
 1981 361    82    72  -3.1  14.8   0.0  0.00  0.67  1.00  0.00  0.00 -0.01  0.00  1.00  0.00  0.00  0.00  0.00 99.90 15.00  68.7   0.0 219.6  1.00  1.00  1.00
 1981 362    83    73  -4.4  14.8   0.0  0.00  0.66  1.00  0.00  0.00 -0.01  0.00  1.00  0.00  0.00  0.00  0.00 99.90 15.00  68.4   0.0 219.7  1.00  1.00  1.00
 1981 363    84    74  -3.6  14.8   0.0  0.00  0.66  1.00  0.00  0.00 -0.01  0.00  1.00  0.00  0.00  0.00  0.00 99.90 15.00  67.9   0.0 219.7  1.00  1.00  1.00
 1981 364    85    75   1.7  14.8   0.6  0.00  0.66  0.66  0.00  0.00 -0.01  0.00  0.83  0.00  0.00  0.00  0.00 99.90 15.00  67.2   0.0 219.8  1.00  1.00  1.00
 1981 365    86    76   0.0  14.8   0.0  0.00  0.66  1.00  0.00  0.00 -0.01  0.00  1.00  0.00  0.00  0.00  0.00 99.90 15.00  66.5   0.0 219.8  1.00  1.00  1.00
 1982   1    87    77  -6.1  14.8   0.0  0.00  0.66  1.00  0.00  0.00 -0.01  0.00  1.00  0.00  0.00  0.00  0.00 99.90 15.00  66.4   0.0 219.8  1.00  1.00  1.00
 1982   2    88    78   0.8  14.8   0.3  0.00  0.66  0.83  0.00  0.00 -0.01  0.00  0.92  0.00  0.00  0.00  0.00 99.90 15.00  68.4   0.0 219.8  1.00  1.00  1.00
 1982   3    89    79  -6.3  14.8   0.0  0.00  0.66  1.00  0.00  0.00 -0.01  0.00  1.00  0.00  0.00  0.00  0.00 99.90 15.00  68.3   0.0 219.9  1.00  1.00  1.00
 1982   4    90    80  -6.1  14.8   0.0  0.00  0.66  1.00  0.00  0.00 -0.01  0.00  1.00  0.00  0.00  0.00  0.00 99.90 15.00  73.3   0.0 219.9  1.00  1.00  1.00
 1982   5    91    81  -1.6  14.8   0.0  0.00  0.66  1.00  0.00  0.00 -0.01  0.00  1.00  0.00  0.00  0.00  0.00 99.90 15.00  72.2   0.0 219.9  1.00  1.00  1.00
 1982   6    92    82 -10.9  14.8   0.0  0.00  0.65  1.00  0.00  0.00 -0.01  0.00  1.00  0.00  0.00  0.00  0.00 99.90 15.00  72.1   0.0 219.9  1.00  1.00  1.00
 1982   7    93    83 -11.4  14.8   0.0  0.00  0.65  1.00  0.00  0.00 -0.01  0.00  1.00  0.00  0.00  0.00  0.00 99.90 15.00  72.0   0.0 220.0  1.00  1.00  1.00
 1982   8    94    84  -2.8  14.8   0.0  0.00  0.65  1.00  0.00  0.00 -0.01  0.00  1.00  0.00  0.00  0.00  0.00 99.90 15.00  71.0   0.0 220.0  1.00  1.00  1.00
 1982   9    95    85  -8.4  14.8   0.0  0.00  0.65  1.00  0.00  0.00 -0.01  0.00  1.00  0.00  0.00  0.00  0.00 99.90 15.00  70.8   0.0 220.0  1.00  1.00  1.00
 1982  10    96    86 -18.6  14.8   0.0  0.00  0.65  1.00  0.00  0.00 -0.01  0.00  1.00  0.00  0.00  0.00  0.00 99.90 15.00  70.8   0.0 220.0  1.00  1.00  1.00
 1982  11    97    87 -13.4  14.8   0.0  0.00  0.64  1.00  0.00  0.00 -0.01  0.00  1.00  0.00  0.00  0.00  0.00 99.90 15.00  70.7   0.0 220.0  1.00  1.00  1.00
 1982  12    98    88  -9.1  14.8   0.0  0.00  0.64  1.00  0.00  0.00 -0.01  0.00  1.00  0.00  0.00  0.00  0.00 99.90 15.00  70.7   0.0 220.0  1.00  1.00  1.00
 1982  13    99    89 -14.5  14.8   0.0  0.00  0.64  1.00  0.00  0.00 -0.01  0.00  1.00  0.00  0.00  0.00  0.00 99.90 15.00  70.6   0.0 220.0  1.00  1.00  1.00
 1982  14   100    90  -3.0  14.8   0.0  0.00  0.64  1.00  0.00  0.00 -0.01  0.00  1.00  0.00  0.00  0.00  0.00 99.90 15.00  72.4   0.0 220.0  1.00  1.00  1.00
 1982  15   101    91  -1.4  14.8   0.0  0.00  0.64  1.00  0.00  0.00 -0.01  0.00  1.00  0.00  0.00  0.00  0.00 99.90 15.00  71.7   0.0 220.0  1.00  1.00  1.00
 1982  16   102    92 -14.1  14.8   0.0  0.00  0.63  1.00  0.00  0.00 -0.01  0.00  1.00  0.00  0.00  0.00  0.00 99.90 15.00  71.7   0.0 220.0  1.00  1.00  1.00
 1982  17   103    93  -8.7  14.8   0.0  0.00  0.63  1.00  0.00  0.00 -0.01  0.00  1.00  0.00  0.00  0.00  0.00 99.90 15.00  71.4   0.0 220.0  1.00  1.00  1.00
 1982  18   104    94   0.3  14.8   0.1  0.00  0.63  0.94  0.00  0.00 -0.01  0.00  0.97  0.00  0.00  0.00  0.00 99.90 15.00  70.4   0.0 220.0  1.00  1.00  1.00
 1982  19   105    95  -0.6  14.8   0.0  0.00  0.62  1.00  0.00  0.00 -0.01  0.00  1.00  0.00  0.00  0.00  0.00 99.90 15.00  69.5   0.0 220.0  1.00  1.00  1.00
 1982  20   106    96  -3.3  14.8   0.0  0.00  0.62  1.00  0.00  0.00 -0.01  0.00  1.00  0.00  0.00  0.00  0.00 99.90 15.00  69.4   0.0 220.0  1.00  1.00  1.00
 1982  21   107    97  -5.0  14.8   0.0  0.00  0.62  1.00  0.00  0.00 -0.01  0.00  1.00  0.00  0.00  0.00  0.00 99.90 15.00  69.4   0.0 220.0  1.00  1.00  1.00
 1982  22   108    98  -2.2  14.8   0.0  0.00  0.62  1.00  0.00  0.00 -0.01  0.00  1.00  0.00  0.00  0.00  0.00 99.90 15.00  71.0   0.0 220.0  1.00  1.00  1.00
 1982  23   109    99 -10.9  14.8   0.0  0.00  0.61  1.00  0.00  0.00 -0.01  0.00  1.00  0.00  0.00  0.00  0.00 99.90 15.00  70.9   0.0 220.0  1.00  1.00  1.00
 1982  24   110   100  -7.5  14.8   0.0  0.00  0.61  1.00  0.00  0.00 -0.01  0.00  1.00  0.00  0.00  0.00  0.00 99.90 15.00  70.6   0.0 220.0  1.00  1.00  1.00
 1982  25   111   101  -1.1  14.8   0.0  0.00  0.61  1.00  0.00  0.00 -0.01  0.00  1.00  0.00  0.00  0.00  0.00 99.90 15.00  74.9   0.0 220.1  1.00  1.00  1.00
 1982  26   112   102   1.4  14.8   0.6  0.00  0.60  0.72  0.00  0.00 -0.01  0.00  0.86  0.00  0.00  0.00  0.00 99.90 15.00  79.3   0.0 220.1  1.00  1.00  1.00
 1982  27   113   103   8.1  14.9   3.2  0.00  0.60  0.00  0.00  0.00 -0.01  0.00  0.19  0.00  0.00  0.00  0.00 99.90 15.00  76.9   0.0 220.1  1.00  1.00  1.00
 1982  28   114   104   0.0  14.9   0.0  0.00  0.60  1.00  0.00  0.00 -0.01  0.00  1.00  0.00  0.00  0.00  0.00 99.90 15.00  75.7   0.0 219.5  1.00  1.00  1.00
 1982  29   115   105   5.2  15.0   2.1  0.00  0.59  0.00  0.00  0.00 -0.01  0.00  0.48  0.00  0.00  0.00  0.00 99.90 15.00  76.1   0.0 219.5  1.00  1.00  1.00
 1982  30   116   106   0.0  15.0   0.0  0.00  0.59  1.00  0.00  0.00 -0.01  0.00  1.00  0.00  0.00  0.00  0.00 99.90 15.00  80.6   0.0 219.5  1.00  1.00  1.00
 1982  31   117   107  -7.2  15.0   0.0  0.00  0.59  1.00  0.00  0.00 -0.01  0.00  1.00  0.00  0.00  0.00  0.00 99.90 15.00  78.9   0.0 219.6  1.00  1.00  1.00
 1982  32   118   108  -1.9  15.0   0.0  0.00  0.58  1.00  0.00  0.00 -0.01  0.00  1.00  0.00  0.00  0.00  0.00 99.90 15.00  78.1   0.0 218.4  1.00  1.00  1.00
 1982  33   119   109  -3.9  15.0   0.0  0.00  0.58  1.00  0.00  0.00 -0.01  0.00  1.00  0.00  0.00  0.00  0.00 99.90 15.00  78.0   0.0 217.9  1.00  1.00  1.00
 1982  34   120   110 -13.0  15.0   0.0  0.00  0.57  1.00  0.00  0.00 -0.01  0.00  1.00  0.00  0.00  0.00  0.00 99.90 15.00  77.9   0.0 217.9  1.00  1.00  1.00
 1982  35   121   111 -17.0  15.0   0.0  0.00  0.57  1.00  0.00  0.00 -0.01  0.00  1.00  0.00  0.00  0.00  0.00 99.90 15.00  77.9   0.0 217.9  1.00  1.00  1.00
 1982  36   122   112 -15.5  15.0   0.0  0.00  0.57  1.00  0.00  0.00 -0.01  0.00  1.00  0.00  0.00  0.00  0.00 99.90 15.00  77.9   0.0 217.9  1.00  1.00  1.00
 1982  37   123   113 -13.8  15.0   0.0  0.00  0.56  1.00  0.00  0.00 -0.01  0.00  1.00  0.00  0.00  0.00  0.00 99.90 15.00  77.7   0.0 217.9  1.00  1.00  1.00
 1982  38   124   114  -6.4  15.0   0.0  0.00  0.56  1.00  0.00  0.00 -0.01  0.00  1.00  0.00  0.00  0.00  0.00 99.90 15.00  78.9   0.0 217.9  1.00  1.00  1.00
 1982  39   125   115  -8.1  15.0   0.0  0.00  0.56  1.00  0.00  0.00 -0.01  0.00  1.00  0.00  0.00  0.00  0.00 99.90 15.00  78.4   0.0 217.9  1.00  1.00  1.00
 1982  40   126   116 -14.4  15.0   0.0  0.00  0.55  1.00  0.00  0.00 -0.01  0.00  1.00  0.00  0.00  0.00  0.00 99.90 15.00  78.2   0.0 217.6  1.00  1.00  1.00
 1982  41   127   117 -11.6  15.0   0.0  0.00  0.55  1.00  0.00  0.00 -0.01  0.00  1.00  0.00  0.00  0.00  0.00 99.90 15.00  78.0   0.0 217.4  1.00  1.00  1.00
 1982  42   128   118  -8.9  15.0   0.0  0.00  0.54  1.00  0.00  0.00 -0.01  0.00  1.00  0.00  0.00  0.00  0.00 99.90 15.00  77.7   0.0 217.4  1.00  1.00  1.00
 1982  43   129   119  -2.2  15.0   0.0  0.00  0.54  1.00  0.00  0.00 -0.01  0.00  1.00  0.00  0.00  0.00  0.00 99.90 15.00  87.2   0.0 217.4  1.00  1.00  1.00
 1982  44   130   120  -4.1  15.0   0.0  0.00  0.53  1.00  0.00  0.00 -0.01  0.00  1.00  0.00  0.00  0.00  0.00 99.90 15.00  86.1   0.0 217.4  1.00  1.00  1.00
 1982  45   131   121   2.8  15.0   1.3  0.00  0.53  0.44  0.00  0.00 -0.01  0.00  0.72  0.00  0.00  0.00  0.00 99.90 15.00  85.9   0.0 215.6  1.00  1.00  1.00
 1982  46   132   122   4.7  15.1   2.2  0.00  0.53  0.06  0.00  0.00 -0.01  0.00  0.53  0.00  0.00  0.00  0.00 99.90 15.00  80.8   0.0 213.1  1.00  1.00  1.00
 1982  47   133   123   3.6  15.1   1.7  0.00  0.52  0.28  0.00  0.00 -0.01  0.00  0.64  0.00  0.00  0.00  0.00 99.90 15.00  80.2   0.0 202.4  1.00  1.00  1.00
 1982  48   134   124   2.5  15.1   1.2  0.00  0.52  0.50  0.00  0.00 -0.01  0.00  0.75  0.00  0.00  0.00  0.00 99.90 15.00  79.6   0.0 201.3  1.00  1.00  1.00
 1982  49   135   125   7.0  15.2   3.4  0.00  0.51  0.00  0.00  0.00 -0.01  0.00  0.30  0.00  0.00  0.00  0.00 99.90 15.00  82.5   0.0 200.5  1.00  1.00  1.00
 1982  50   136   126   8.9  15.3   4.4  0.00  0.51  0.00  0.00  0.00 -0.01  0.00  0.11  0.00  0.00  0.00  0.00 99.90 15.00  79.3   0.0 199.4  1.00  1.00  1.00
 1982  51   137   127  11.1  15.4   5.5  0.00  0.50  0.00  0.00  0.00 -0.01  0.00  0.00  0.00  0.00  0.00  0.00 99.90 15.00  77.8   0.0 197.4  1.00  1.00  1.00
 1982  52   138   128  10.0  15.5   5.0  0.00  0.50  0.00  0.00  0.00 -0.01  0.00  0.00  0.00  0.00  0.00  0.00 99.90 15.00  76.3   0.0 197.6  1.00  1.00  1.00
 1982  53   139   129  12.2  15.6   6.2  0.00  0.50  0.00  0.00  0.00 -0.01  0.00  0.00  0.00  0.00  0.00  0.00 99.90 15.00  76.2   0.0 197.8  1.00  1.00  1.00
 1982  54   140   130   9.4  15.7   4.8  0.00  0.49  0.00  0.00  0.00 -0.01  0.00  0.06  0.00  0.00  0.00  0.00 99.90 15.00  76.4   0.0 198.2  1.00  1.00  1.00
 1982  55   141   131   3.3  15.8   1.7  0.00  0.49  0.33  0.00  0.00 -0.01  0.00  0.67  0.00  0.00  0.00  0.00 99.90 15.00  75.7   0.0 198.7  1.00  1.00  1.00
 1982  56   142   132  -1.4  15.8   0.0  0.00  0.48  1.00  0.00  0.00 -0.01  0.00  1.00  0.00  0.00  0.00  0.00 99.90 15.00  75.0   0.0 199.3  1.00  1.00  1.00
 1982  57   143   133  -2.0  15.8   0.0  0.00  0.48  1.00  0.00  0.00 -0.01  0.00  1.00  0.00  0.00  0.00  0.00 99.90 15.00  74.3   0.0 199.7  1.00  1.00  1.00
 1982  58   144   134   1.7  15.8   0.9  0.00  0.47  0.67  0.00  0.00 -0.01  0.00  0.83  0.00  0.00  0.00  0.00 99.90 15.00  73.8   0.0 200.0  1.00  1.00  1.00
 1982  59   145   135   4.7  21.0   2.5  0.00  0.47  0.06  0.00  0.00 -0.01  0.00  0.53  0.00  0.00  0.00  0.00 99.90 15.00  73.4   0.0 200.2  1.00  1.00  1.00
 1982  60   146   136   8.4  21.1   4.5  0.00  0.47  0.00  0.00  0.00 -0.01  0.00  0.16  0.00  0.00  0.00  0.00 99.90 15.00  73.3   0.0 200.2  1.00  1.00  1.00
 1982  61   147   137   8.7  21.1   4.7  0.00  0.46  0.00  0.00  0.00 -0.01  0.00  0.13  0.00  0.00  0.00  0.00 99.90 15.00  73.2   0.0 200.2  1.00  1.00  1.00
 1982  62   148   138  -0.2  21.1   0.0  0.00  0.46  1.00  0.00  0.00 -0.01  0.00  1.00  0.00  0.00  0.00  0.00 99.90 15.00  73.1   0.0 200.3  1.00  1.00  1.00
 1982  63   149   139  -3.7  21.1   0.0  0.00  0.45  1.00  0.00  0.00 -0.01  0.00  1.00  0.00  0.00  0.00  0.00 99.90 15.00  73.0   0.0 200.5  1.00  1.00  1.00
 1982  64   150   140  -4.2  21.1   0.0  0.00  0.45  1.00  0.00  0.00 -0.01  0.00  1.00  0.00  0.00  0.00  0.00 99.90 15.00  72.7   0.0 200.7  1.00  1.00  1.00
 1982  65   151   141  -3.0  21.1   0.0  0.00  0.44  1.00  0.00  0.00 -0.01  0.00  1.00  0.00  0.00  0.00  0.00 99.90 15.00  72.7   0.0 200.7  1.00  1.00  1.00
 1982  66   152   142  -3.0  21.1   0.0  0.00  0.44  1.00  0.00  0.00 -0.01  0.00  1.00  0.00  0.00  0.00  0.00 99.90 15.00  72.3   0.0 200.7  1.00  1.00  1.00
 1982  67   153   143   2.5  21.2   1.4  0.00  0.43  0.50  0.00  0.00 -0.01  0.00  0.75  0.00  0.00  0.00  0.00 99.90 15.00  71.9   0.0 200.7  1.00  1.00  1.00
 1982  68   154   144   1.4  21.2   0.8  0.00  0.43  0.72  0.00  0.00 -0.01  0.00  0.86  0.00  0.00  0.00  0.00 99.90 15.00  71.6   0.0 200.7  1.00  1.00  1.00
 1982  69   155   145  11.1  21.3   6.4  0.00  0.42  0.00  0.00  0.00 -0.01  0.00  0.00  0.00  0.00  0.00  0.00 99.90 15.00  71.8   0.0 200.7  1.00  1.00  1.00
 1982  70   156   146  10.0  21.4   5.8  0.00  0.42  0.00  0.00  0.00 -0.01  0.00  0.00  0.00  0.00  0.00  0.00 99.90 15.00  72.1   0.0 200.7  1.00  1.00  1.00
 1982  71   157   147  12.8  21.5   7.5  0.00  0.42  0.00  0.00  0.00 -0.01  0.00  0.00  0.00  0.00  0.00  0.00 99.90 15.00  72.6   0.0 200.8  1.00  1.00  1.00
 1982  72   158   148   8.0  21.5   4.7  0.00  0.41  0.00  0.00  0.00 -0.01  0.00  0.20  0.00  0.00  0.00  0.00 99.90 14.10  72.8   0.0 201.0  1.00  1.00  1.00
 1982  73   159   149   7.8  21.6   4.6  0.00  0.41  0.00  0.00  0.00 -0.01  0.00  0.22  0.00  0.00  0.00  0.00 99.90 15.00  73.0   0.0 201.3  1.00  1.00  1.00
 1982  74   160   150  10.0  21.7   6.0  0.00  0.40  0.00  0.00  0.00 -0.01  0.00  0.00  0.00  0.00  0.00  0.00 99.90 15.00  93.7   0.0 201.6  1.00  1.00  1.00
 1982  75   161   151  13.0  21.8   7.9  0.00  0.40  0.00  0.00  0.00 -0.01  0.00  0.00  0.00  0.00  0.00  0.00 99.90  8.53  96.9   0.1 202.0  1.00  1.00  1.00
 1982  76   162   152  13.9  21.9   8.4  0.00  0.39  0.00  0.00  0.00 -0.01  0.00  0.00  0.00  0.00  0.00  0.00 99.90  6.80  89.3   0.1 201.0  1.00  1.00  1.00
 1982  77   163   153   9.8  22.0   6.0  0.00  0.39  0.00  0.00  0.00 -0.01  0.00  0.02  0.00  0.00  0.00  0.00 99.90 15.00  88.8   0.0 192.5  1.00  1.00  1.00
 1982  78   164   154  16.1  22.1   9.9  0.00  0.39  0.00  0.00  0.00 -0.01  0.00  0.00  0.00  0.00  0.00  0.00 99.90  5.24  98.9   0.1 192.3  1.00  1.00  1.00
 1982  79   165   155   8.3  22.2   5.1  0.00  0.38  0.00  0.00  0.00 -0.01  0.00  0.17  0.00  0.00  0.00  0.00 99.90  3.98  90.8   0.2 191.4  1.00  1.00  1.00
 1982  80   166   156   2.5  22.2   1.6  0.00  0.38  0.50  0.00  0.00 -0.01  0.00  0.75  0.00  0.00  0.00  0.00 99.90  4.25  87.6   0.2 184.8  1.00  1.00  1.00
 1982  81   167   157   3.9  22.3   2.4  0.00  0.37  0.22  0.00  0.00 -0.01  0.00  0.61  0.00  0.00  0.00  0.00 99.90  3.77  84.7   0.2 184.6  1.00  1.00  1.00
 1982  82   168   158   7.8  22.3   4.9  0.00  0.37  0.00  0.00  0.00 -0.01  0.00  0.22  0.00  0.00  0.00  0.00 99.90  6.81  84.1   0.1 185.0  1.00  1.00  1.00
 1982  83   169   159   6.6  22.4   4.2  0.00  0.36  0.00  0.00  0.00 -0.01  0.00  0.34  0.00  0.00  0.00  0.00 99.90  4.17  83.4   0.2 185.3  1.00  1.00  1.00
 1982  84   170   160   3.9  22.4   2.5  0.00  0.36  0.23  0.00  0.00 -0.01  0.00  0.62  0.00  0.00  0.00  0.00 99.90  3.58  86.7   0.3 185.2  1.00  1.00  1.00
 1982  85   171   161   3.0  22.5   2.0  0.00  0.35  0.39  0.00  0.00 -0.01  0.00  0.69  0.00  0.00  0.00  0.00 99.90  3.64  85.5   0.3 185.2  1.00  1.00  1.00
 1982  86   172   162   5.6  22.5   3.6  0.00  0.35  0.00  0.00  0.00 -0.01  0.00  0.44  0.00  0.00  0.00  0.00 99.90  4.44  84.6   0.3 185.3  1.00  1.00  1.00
 1982  87   173   163   6.9  22.6   4.5  0.00  0.35  0.00  0.00  0.00 -0.01  0.00  0.31  0.00  0.00  0.00  0.00 99.90  6.09  83.9   0.2 185.2  1.00  1.00  1.00
 1982  88   174   164  10.3  22.7   6.8  0.00  0.34  0.00  0.00  0.00 -0.01  0.00  0.00  0.00  0.00  0.00  0.00 99.90  8.31  83.4   0.2 185.0  1.00  1.00  1.00
 1982  89   175   165  15.0  22.9   9.9  0.00  0.34  0.00  0.00  0.00 -0.01  0.00  0.00  0.00  0.00  0.00  0.00 99.90  2.89  84.3   0.5 184.5  0.98  0.99  0.99
 1982  90   176   166  10.9  23.0   7.2  0.00  0.33  0.00  0.00  0.02 -0.01  0.00  0.00  0.00  0.02  0.00  0.02 99.90  2.32  83.4   0.7 183.6  0.99  1.00  0.99
 1982  91   177   167  13.9  23.2   9.3  0.00  0.33  0.00  0.00  0.02 -0.01  0.00  0.00  0.00  0.02  0.00  0.02 99.90  2.27  82.5   0.8 182.7  0.96  0.97  0.97
 1982  92   178   168  17.0  23.4  11.4  0.00  0.33  0.00  0.00  0.05 -0.01  0.00  0.00  0.00  0.05  0.00  0.05 99.90  2.59  81.9   0.8 181.7  0.92  0.94  0.95
 1982  93   179   169   7.5  23.5   5.1  0.00  0.32  0.00  0.00  0.09 -0.01  0.00  0.25  0.00  0.09  0.00  0.09 81.73  2.28  80.7   1.0 180.8  0.93  0.96  0.96
 1982  94   180   170   5.2  23.6   3.6  0.00  0.32  0.00  0.00  0.08 -0.01  0.00  0.48  0.00  0.08  0.00  0.08 99.90  3.11  79.7   0.7 180.5  0.94  0.97  0.97
 1982  95   181   171   3.6  23.7   2.5  0.00  0.31  0.28  0.00  0.07 -0.01  0.00  0.64  0.00  0.07  0.00  0.07 99.90  6.82  85.3   0.4 180.5  0.94  0.97  0.98
 1982  96   182   172  -0.8  23.7   0.0  0.00  0.31  1.00  0.00  0.07 -0.01  0.00  1.00  0.00  0.07  0.00  0.07 99.90  4.81  83.7   0.6 180.7  0.94  0.97  0.98
 1982  97   183   173   3.0  23.8   2.1  0.00  0.31  0.39  0.00  0.06 -0.01  0.00  0.69  0.00  0.06  0.00  0.06 99.90 15.00  83.2   0.2 181.1  0.95  0.98  0.98
 1982  98   184   174   4.4  23.9   3.1  0.00  0.30  0.12  0.00  0.06 -0.01  0.00  0.56  0.00  0.06  0.00  0.06 99.90  6.07  82.8   0.5 181.1  0.95  0.99  0.99
 1982  99   185   175   4.1  24.0   2.9  0.00  0.30  0.17  0.00  0.05 -0.01  0.00  0.59  0.00  0.05  0.00  0.05 75.43  2.80  81.1   1.1 180.9  0.96  0.99  0.99
 1982 100   186   176   8.7  24.2   6.1  0.00  0.29  0.00  0.00  0.05 -0.01  0.00  0.13  0.00  0.05  0.00  0.05 67.92  2.83  79.5   1.2 180.5  0.97  1.00  0.99
 1982 101   187   177  13.6  24.5   9.7  0.00  0.29  0.00  0.00  0.04 -0.01  0.00  0.00  0.00  0.04  0.00  0.04 58.85  2.76  78.2   1.3 179.5  0.98  1.00  1.00
 1982 102   188   178  20.2  25.0  14.5  0.00  0.29  0.00  0.00  0.03 -0.01  0.00  0.02  0.00  0.03  0.00  0.03 43.03  2.26  76.7   1.8 177.7  0.94  0.97  0.98
 1982 103   189   179  16.1  25.4  11.6  0.00  0.28  0.00  0.00  0.07 -0.01  0.00  0.00  0.00  0.07  0.00  0.07 41.06  2.30  75.1   1.8 176.0  0.92  0.96  0.96
 1982 104   190   180  21.1  25.9  15.3  0.00  0.28  0.00  0.00  0.09 -0.01  0.00  0.08  0.00  0.09  0.00  0.09 33.17  1.89  73.4   2.2 174.4  0.90  0.94  0.94
 1982 105   191   181  24.2  26.6  17.6  0.00  0.27  0.00  0.00  0.12 -0.01  0.00  0.28  0.00  0.12  0.00  0.12 40.01  2.49  72.2   1.8 173.0  0.89  0.95  0.93
 1982 106   192   182  18.4  27.0  13.4  0.00  0.27  0.00  0.00  0.12 -0.01  0.00  0.00  0.00  0.12  0.00  0.12 88.10  5.80  71.8   0.8 171.7  0.89  0.97  0.93
 1982 107   193   183  10.0  27.3   7.3  0.00  0.27  0.00  0.00  0.12 -0.01  0.00  0.00  0.00  0.12  0.00  0.12 30.35  2.11  69.6   2.3 170.5  0.90  0.97  0.92
 1982 108   194   184  12.2  27.7   9.0  0.00  0.26  0.00  0.00  0.12 -0.01  0.00  0.00  0.00  0.12  0.00  0.12 28.22  2.05  67.4   2.4 169.3  0.89  0.97  0.91
 1982 109   195   185  15.3  28.1  11.3  0.00  0.26  0.00  0.00  0.12 -0.01  0.00  0.00  0.00  0.12  0.00  0.12 27.06  1.80  68.0   2.5 168.1  0.88  0.95  0.90
 1982 110   196   186   6.7  28.1   6.6  0.00  0.00  0.00  0.00  0.14 -0.01  0.00  0.33  0.00  0.14  0.00  0.14 29.23  2.66  65.5   2.2 166.9  0.89  0.96  0.91
 1982 111   197   187   7.0  28.1   7.0  0.00  0.00  0.00  0.00  0.12 -0.01  0.00  0.30  0.00  0.12  0.00  0.12 29.81  2.36  63.3   2.1 166.1  0.91  0.97  0.93
 1982 112   198   188   8.6  28.1   8.6  0.00  0.00  0.00  0.00  0.11 -0.01  0.00  0.14  0.00  0.11  0.00  0.11 23.13  1.94  60.6   2.6 165.1  0.92  0.97  0.93
 1982 113   199   189  11.7  28.1  11.7  0.00  0.00  0.00  0.00  0.10 -0.01  0.00  0.00  0.00  0.10  0.00  0.10 23.37  2.13  58.3   2.5 163.8  0.91  0.95  0.92
 1982 114   200   190  16.4  28.1  16.4  0.00  0.00  0.00  0.00  0.10 -0.01  0.00  0.00  0.00  0.10  0.00  0.10 23.03  2.26  56.3   2.4 162.6  0.89  0.90  0.91
 1982 115   201   191  13.1  28.1  13.1  0.00  0.00  0.00  0.00  0.13 -0.01  0.00  0.00  0.00  0.13  0.00  0.13 38.62  3.10  55.6   1.4 161.4  0.89  0.87  0.91
 1982 116   202   192  14.1  30.4  14.1  0.00  0.00  0.00  0.00  0.13 -0.01  0.00  0.00  0.06  0.13  0.00  0.13 16.27  1.22  52.7   3.2 160.3  0.87  0.83  0.90
 1982 117   203   193  10.6  30.9  10.6  0.00  0.00  0.00  0.00  0.15 -0.01  0.00  0.00  0.00  0.15  0.00  0.15 58.31  3.91  52.2   0.9 159.3  0.88  0.84  0.90
 1982 118   204   194   8.4  31.3   8.4  0.00  0.00  0.00  0.00  0.14 -0.01  0.00  0.16  0.00  0.14  0.00  0.14 99.90 15.00  55.9   0.2 158.3  0.89  0.85  0.91
 1982 119   205   195  10.0  31.8  10.0  0.00  0.00  0.00  0.00  0.13 -0.01  0.00  0.00  0.00  0.13  0.00  0.13 88.70  7.45  71.2   0.8 158.0  0.91  0.88  0.92
 1982 120   206   196  13.9  32.4  13.9  0.00  0.00  0.00  0.00  0.11 -0.01  0.00  0.00  0.00  0.11  0.00  0.11 50.35  6.54  70.2   1.4 156.5  0.93  0.90  0.93
 1982 121   207   197  16.1  33.2  16.1  0.00  0.00  0.00  0.00  0.08 -0.01  0.00  0.00  0.00  0.08  0.00  0.08 34.82  4.74  68.1   2.0 154.5  0.95  0.93  0.94
 1982 122   208   198  18.0  34.0  18.0  0.00  0.00  0.00  0.00  0.06 -0.01  0.00  0.00  0.00  0.06  0.00  0.06 24.72  3.59  65.4   2.6 152.2  0.97  0.96  0.95
 1982 123   209   199  22.0  35.1  22.0  0.00  0.00  0.00  0.00  0.03 -0.01  0.00  0.13  0.00  0.03  0.00  0.03 18.78  2.96  62.3   3.3 149.4  0.99  0.95  0.95
 1982 124   210   200  24.5  36.2  24.5  0.00  0.00  0.00  0.00  0.02 -0.01  0.00  0.30  0.00  0.02  0.00  0.02 14.24  2.48  58.7   4.1 147.2  1.00  0.95  0.94
 1982 125   211   201  18.0  37.1  18.0  0.00  0.00  0.00  0.00  0.00 -0.01  0.00  0.00  0.00  0.00  0.00  0.00 67.85  9.62  58.4   0.9 145.6  1.00  0.97  0.95
 1982 126   212   202  10.9  37.6  10.9  0.00  0.00  0.00  0.00  0.00 -0.01  0.00  0.00  0.00  0.00  0.00  0.00 45.76  4.20  88.8   1.9 144.8  1.00  0.98  0.96
 1982 127   213   203  14.4  38.2  14.4  0.00  0.00  0.00  0.00  0.00 -0.01  0.00  0.00  0.00  0.00  0.00  0.00 21.35  3.52  87.6   4.1 144.3  1.00  0.99  0.96
 1982 128   214   204  20.5  39.2  20.5  0.00  0.00  0.00  0.00  0.00 -0.01  0.00  0.04  0.00  0.00  0.00  0.00 17.25  3.17  82.6   4.8 142.9  1.00  1.00  0.97
 1982 129   215   205  22.5  40.3  22.5  0.00  0.00  0.00  0.00  0.00 -0.01  0.00  0.17  0.00  0.00  0.00  0.00 17.31  3.50  78.2   4.5 141.0  1.00  1.00  0.98
 1982 130   216   206  22.5  41.5  22.5  0.00  0.00  0.00  0.00  0.00 -0.01  0.00  0.17  0.00  0.00  0.00  0.00 22.52  4.79  75.2   3.3 139.7  1.00  1.00  0.99
 1982 131   217   207  22.0  42.6  22.0  0.00  0.00  0.00  0.00  0.00 -0.01  0.00  0.13  0.00  0.00  0.00  0.00 17.63  3.91  72.4   4.1 140.3  1.00  1.00  0.99
 1982 132   218   208  18.9  43.6  18.9  0.00  0.00  0.00  0.00  0.00 -0.01  0.00  0.00  0.00  0.00  0.00  0.00 56.40  9.18  98.3   1.7 140.8  1.00  1.00  1.00
 1982 133   219   209  20.0  44.7  20.0  0.00  0.00  0.00  0.00  0.00 -0.01  0.00  0.00  0.00  0.00  0.00  0.00 51.61  8.78  97.2   1.9 141.4  1.00  1.00  1.00
 1982 134   220   210  17.8  45.6  17.8  0.00  0.00  0.00  0.00  0.00 -0.01  0.00  0.00  0.00  0.00  0.00  0.00 50.00  8.60  96.4   1.9 142.1  1.00  1.00  1.00
 1982 135   221   211  17.8  46.5  17.8  0.00  0.00  0.00  0.00  0.00 -0.01  0.00  0.00  0.00  0.00  0.00  0.00 23.34  3.75 103.7   4.4 142.8  1.00  1.00  1.00
 1982 136   222   212  19.5  47.6  19.5  0.00  0.00  0.00  0.00  0.00 -0.01  0.00  0.00  0.00  0.00  0.00  0.00 53.69  8.75 104.1   1.9 143.5  1.00  1.00  1.00
 1982 137   223   213  19.5  48.6  19.5  0.00  0.00  0.00  0.00  0.00 -0.01  0.00  0.00  0.00  0.00  0.00  0.00 37.97  6.08 106.3   2.8 144.2  1.00  1.00  1.00
 1982 138   224   214  20.3  49.7  20.3  0.00  0.00  0.00  0.00  0.00 -0.01  0.00  0.02  0.00  0.00  0.00  0.00 23.74  3.93 103.6   4.4 144.8  1.00  1.00  1.00
 1982 139   225   215  23.6  53.4  23.6  0.00  0.00  0.00  0.00  0.00 -0.01  0.00  0.24  0.00  0.00  0.00  0.00 23.07  4.05  99.3   4.3 145.4  1.00  1.00  1.00
 1982 140   226   216  21.1  57.6  21.1  0.00  0.00  0.00  0.00  0.00 -0.01  0.00  0.07  0.00  0.00  0.00  0.00 40.03  7.27  97.1   2.4 146.1  1.00  1.00  1.00
 1982 141   227   217  18.0  63.1  18.0  0.00  0.00  0.00  0.00  0.00 -0.01  0.00  0.00  0.00  0.00  0.00  0.00 35.02  5.26 117.7   3.4 146.7  1.00  1.00  1.00
 1982 142   228   218  16.1  70.2  16.1  0.00  0.00  0.00  0.00  0.00 -0.01  0.00  0.00  0.00  0.00  0.00  0.00 44.46  7.44 115.6   2.6 147.3  1.00  1.00  1.00
 1982 143   229   219  18.0  71.6  18.0  0.00  0.00  0.00  0.00  0.00 -0.01  0.00  0.00  0.00  0.00  0.00  0.00 30.07  5.21 111.6   3.7 148.0  1.00  1.00  1.00
 1982 144   230   220  18.7  73.0  18.7  0.00  0.00  0.00  0.00  0.00 -0.01  0.00  0.00  0.00  0.00  0.00  0.00 75.33 13.15 110.5   1.5 148.7  1.00  1.00  1.00
 1982 145   231   221  20.0  74.5  20.0  0.00  0.00  0.00  0.00  0.00 -0.01  0.00  0.00  0.00  0.00  0.00  0.00 56.28  8.58 125.8   2.2 149.3  1.00  1.00  1.00
 1982 146   232   222  16.4  75.8  16.4  0.00  0.00  0.00  0.00  0.00 -0.01  0.00  0.00  0.00  0.00  0.00  0.00 37.82  4.95 145.3   3.8 149.8  1.00  1.00  1.00
 1982 147   233   223  18.4  77.2  18.4  0.00  0.00  0.00  0.00  0.00 -0.01  0.00  0.00  0.00  0.00  0.00  0.00 32.05  4.36 143.9   4.5 149.5  1.00  1.00  1.00
 1982 148   234   224  23.3  79.0  23.3  0.00  0.00  0.00  0.00  0.00 -0.01  0.00  0.22  0.00  0.00  0.00  0.00 50.30  7.26 135.2   2.7 147.8  1.00  1.00  1.00
 1982 149   235   225  21.4  80.2  21.4  0.00  0.00  0.00  0.00  0.00 -0.01  0.00  0.09  0.00  0.00  0.00  0.00 40.79  5.12 154.7   3.8 140.7  1.00  1.00  1.00
 1982 150   236   226  20.5  80.6  20.5  0.00  0.00  0.00  0.00  0.00 -0.01  0.00  0.04  0.00  0.00  0.00  0.00 51.89  6.78 148.1   2.9 138.0  1.00  1.00  1.00
 1982 151   237   227  17.8  80.9  17.8  0.00  0.00  0.00  0.00  0.00 -0.01  0.00  0.00  0.00  0.00  0.00  0.00 70.66  8.87 153.6   2.2 132.8  1.00  1.00  1.00
 1982 152   238   228  12.8  81.2  12.8  0.00  0.00  0.00  0.00  0.00 -0.01  0.00  0.00  0.00  0.00  0.00  0.00 35.44  4.89 139.1   3.9 126.4  1.00  1.00  1.00
 1982 153   239   229  15.2  81.5  15.2  0.00  0.00  0.00  0.00  0.00 -0.01  0.00  0.00  0.00  0.00  0.00  0.00 89.48 12.44 137.6   1.5 114.7  1.00  1.00  1.00
 1982 154   240   230  15.0  81.8  15.0  0.00  0.00  0.00  0.00  0.00 -0.01  0.00  0.00  0.00  0.00  0.00  0.00 99.90 15.00 137.9   1.1 112.1  1.00  1.00  1.00
 1982 155   241   231  17.0  82.1  17.0  0.00  0.00  0.00  0.00  0.00 -0.01  0.00  0.00  0.00  0.00  0.00  0.00 65.19  8.92 138.1   2.1 110.8  1.00  1.00  1.00
 1982 156   242   232  17.8  82.5  17.8  0.00  0.00  0.00  0.00  0.00 -0.01  0.00  0.00  0.00  0.00  0.00  0.00 41.72  5.83 134.5   3.2 109.0  1.00  1.00  1.00
 1982 157   243   233  25.5  83.0  25.5  0.00  0.00  0.05  0.00  0.00 -0.01  0.00  0.37  0.00  0.00  0.00  0.00 40.02  5.71 131.2   3.3 107.1  1.00  1.00  0.95
 1982 158   244   234  20.2  83.4  20.2  0.00  0.00  0.00  0.00  0.00 -0.01  0.00  0.02  0.00  0.00  0.00  0.00 34.26  4.59 139.2   4.1 104.6  1.00  1.00  0.92
 1982 159   245   235  25.8  83.9  25.8  0.00  0.00  0.08  0.00  0.00 -0.01  0.00  0.39  0.00  0.00  0.00  0.00 37.55  5.16 135.4   3.6 102.7  0.99  1.00  0.88
 1982 160   246   236  22.8  84.4  22.8  0.00  0.00  0.00  0.00  0.02 -0.01  0.00  0.18  0.00  0.02  0.00  0.02 36.99  4.59 149.2   4.0 100.8  0.95  1.00  0.85
[...]
 1982  51   137   127  11.1  15.4   5.5  0.00  0.50  0.00  0.00  0.00 -0.01  0.00  0.00  0.00  0.00  0.00  0.00 99.90 15.00  77.8   0.0 226.5  1.00  1.00  1.00
 1982  52   138   128  10.0  15.5   5.0  0.00  0.50  0.00  0.00  0.00 -0.01  0.00  0.00  0.00  0.00  0.00  0.00 99.90 15.00  76.3   0.0 226.6  1.00  1.00  1.00
 1982  53   139   129  12.2  15.6   6.2  0.00  0.50  0.00  0.00  0.00 -0.01  0.00  0.00  0.00  0.00  0.00  0.00 99.90 15.00  76.2   0.0 226.8  1.00  1.00  1.00
 1982  54   140   130   9.4  15.7   4.8  0.00  0.49  0.00  0.00  0.00 -0.01  0.00  0.06  0.00  0.00  0.00  0.00 99.90 15.00  76.4   0.0 227.2  1.00  1.00  1.00
 1982  55   141   131   3.3  15.8   1.7  0.00  0.49  0.33  0.00  0.00 -0.01  0.00  0.67  0.00  0.00  0.00  0.00 99.90 15.00  75.7   0.0 227.7  1.00  1.00  1.00
 1982  56   142   132  -1.4  15.8   0.0  0.00  0.48  1.00  0.00  0.00 -0.01  0.00  1.00  0.00  0.00  0.00  0.00 99.90 15.00  75.0   0.0 228.3  1.00  1.00  1.00
 1982  57   143   133  -2.0  15.8   0.0  0.00  0.48  1.00  0.00  0.00 -0.01  0.00  1.00  0.00  0.00  0.00  0.00 99.90 15.00  74.3   0.0 318.7  1.00  1.00  1.00
 1982  58   144   134   1.7  15.8   0.9  0.00  0.47  0.67  0.00  0.00 -0.01  0.00  0.83  0.00  0.00  0.00  0.00 99.90 15.00  73.8   0.0 318.9  1.00  1.00  1.00
 1982  59   145   135   4.7  21.0   2.5  0.00  0.47  0.06  0.00  0.00 -0.01  0.00  0.53  0.00  0.00  0.00  0.00 99.90 15.00  73.4   0.0 319.0  1.00  1.00  1.00
 1982  60   146   136   8.4  21.1   4.5  0.00  0.47  0.00  0.00  0.00 -0.01  0.00  0.16  0.00  0.00  0.00  0.00 99.90 15.00  73.3   0.0 319.0  1.00  1.00  1.00
 1982  61   147   137   8.7  21.1   4.7  0.00  0.46  0.00  0.00  0.00 -0.01  0.00  0.13  0.00  0.00  0.00  0.00 99.90 15.00  73.2   0.0 319.0  1.00  1.00  1.00
 1982  62   148   138  -0.2  21.1   0.0  0.00  0.46  1.00  0.00  0.00 -0.01  0.00  1.00  0.00  0.00  0.00  0.00 99.90 15.00  73.1   0.0 319.1  1.00  1.00  1.00
 1982  63   149   139  -3.7  21.1   0.0  0.00  0.45  1.00  0.00  0.00 -0.01  0.00  1.00  0.00  0.00  0.00  0.00 99.90 15.00  73.0   0.0 319.2  1.00  1.00  1.00
 1982  64   150   140  -4.2  21.1   0.0  0.00  0.45  1.00  0.00  0.00 -0.01  0.00  1.00  0.00  0.00  0.00  0.00 99.90 15.00  72.7   0.0 319.4  1.00  1.00  1.00
 1982  65   151   141  -3.0  21.1   0.0  0.00  0.44  1.00  0.00  0.00 -0.01  0.00  1.00  0.00  0.00  0.00  0.00 99.90 15.00  72.7   0.0 319.4  1.00  1.00  1.00
 1982  66   152   142  -3.0  21.1   0.0  0.00  0.44  1.00  0.00  0.00 -0.01  0.00  1.00  0.00  0.00  0.00  0.00 99.90 15.00  72.3   0.0 319.4  1.00  1.00  1.00
 1982  67   153   143   2.5  21.2   1.4  0.00  0.43  0.50  0.00  0.00 -0.01  0.00  0.75  0.00  0.00  0.00  0.00 99.90 15.00  71.9   0.0 319.4  1.00  1.00  1.00
 1982  68   154   144   1.4  21.2   0.8  0.00  0.43  0.72  0.00  0.00 -0.01  0.00  0.86  0.00  0.00  0.00  0.00 99.90 15.00  71.6   0.0 319.4  1.00  1.00  1.00
 1982  69   155   145  11.1  21.3   6.4  0.00  0.42  0.00  0.00  0.00 -0.01  0.00  0.00  0.00  0.00  0.00  0.00 99.90 15.00  71.8   0.0 319.4  1.00  1.00  1.00
 1982  70   156   146  10.0  21.4   5.8  0.00  0.42  0.00  0.00  0.00 -0.01  0.00  0.00  0.00  0.00  0.00  0.00 99.90 15.00  72.1   0.0 319.4  1.00  1.00  1.00
 1982  71   157   147  12.8  21.5   7.5  0.00  0.42  0.00  0.00  0.00 -0.01  0.00  0.00  0.00  0.00  0.00  0.00 99.90 15.00  72.6   0.0 319.5  1.00  1.00  1.00
 1982  72   158   148   8.0  21.5   4.7  0.00  0.41  0.00  0.00  0.00 -0.01  0.00  0.20  0.00  0.00  0.00  0.00 99.90 14.02  72.8   0.0 319.7  1.00  1.00  1.00
 1982  73   159   149   7.8  21.6   4.6  0.00  0.41  0.00  0.00  0.00 -0.01  0.00  0.22  0.00  0.00  0.00  0.00 99.90 15.00  73.0   0.0 320.0  1.00  1.00  1.00
 1982  74   160   150  10.0  21.7   6.0  0.00  0.40  0.00  0.00  0.00 -0.01  0.00  0.00  0.00  0.00  0.00  0.00 99.90 15.00  93.7   0.0 320.3  1.00  1.00  1.00
 1982  75   161   151  13.0  21.8   7.9  0.00  0.40  0.00  0.00  0.00 -0.01  0.00  0.00  0.00  0.00  0.00  0.00 99.90  8.53  96.9   0.1 320.7  1.00  1.00  1.00
 1982  76   162   152  13.9  21.9   8.4  0.00  0.39  0.00  0.00  0.00 -0.01  0.00  0.00  0.00  0.00  0.00  0.00 99.90  6.80  89.3   0.1 319.6  1.00  1.00  1.00
 1982  77   163   153   9.8  22.0   6.0  0.00  0.39  0.00  0.00  0.00 -0.01  0.00  0.02  0.00  0.00  0.00  0.00 99.90 15.00  88.8   0.0 310.8  1.00  1.00  1.00
 1982  78   164   154  16.1  22.1   9.9  0.00  0.39  0.00  0.00  0.00 -0.01  0.00  0.00  0.00  0.00  0.00  0.00 99.90  5.24  98.9   0.1 310.5  1.00  1.00  1.00
 1982  79   165   155   8.3  22.2   5.1  0.00  0.38  0.00  0.00  0.00 -0.01  0.00  0.17  0.00  0.00  0.00  0.00 99.90  3.98  90.8   0.2 309.6  1.00  1.00  1.00
 1982  80   166   156   2.5  22.2   1.6  0.00  0.38  0.50  0.00  0.00 -0.01  0.00  0.75  0.00  0.00  0.00  0.00 99.90  4.25  87.6   0.2 302.5  1.00  1.00  1.00
 1982  81   167   157   3.9  22.3   2.4  0.00  0.37  0.22  0.00  0.00 -0.01  0.00  0.61  0.00  0.00  0.00  0.00 99.90  3.77  84.7   0.2 302.3  1.00  1.00  1.00
 1982  82   168   158   7.8  22.3   4.9  0.00  0.37  0.00  0.00  0.00 -0.01  0.00  0.22  0.00  0.00  0.00  0.00 99.90  6.81  84.1   0.1 302.7  1.00  1.00  1.00
 1982  83   169   159   6.6  22.4   4.2  0.00  0.36  0.00  0.00  0.00 -0.01  0.00  0.34  0.00  0.00  0.00  0.00 99.90  4.17  83.4   0.2 302.9  1.00  1.00  1.00
 1982  84   170   160   3.9  22.4   2.5  0.00  0.36  0.23  0.00  0.00 -0.01  0.00  0.62  0.00  0.00  0.00  0.00 99.90  3.58  86.7   0.3 302.8  1.00  1.00  1.00
 1982  85   171   161   3.0  22.5   2.0  0.00  0.35  0.39  0.00  0.00 -0.01  0.00  0.69  0.00  0.00  0.00  0.00 99.90  3.64  85.5   0.3 302.9  1.00  1.00  1.00
 1982  86   172   162   5.6  22.5   3.6  0.00  0.35  0.00  0.00  0.00 -0.01  0.00  0.44  0.00  0.00  0.00  0.00 99.90  4.44  84.6   0.3 303.0  1.00  1.00  1.00
 1982  87   173   163   6.9  22.6   4.5  0.00  0.35  0.00  0.00  0.00 -0.01  0.00  0.31  0.00  0.00  0.00  0.00 99.90  6.09  83.9   0.2 302.9  1.00  1.00  1.00
 1982  88   174   164  10.3  22.7   6.8  0.00  0.34  0.00  0.00  0.00 -0.01  0.00  0.00  0.00  0.00  0.00  0.00 99.90  8.31  83.4   0.2 302.7  1.00  1.00  1.00
 1982  89   175   165  15.0  22.9   9.9  0.00  0.34  0.00  0.00  0.00 -0.01  0.00  0.00  0.00  0.00  0.00  0.00 99.90  2.90  84.4   0.5 302.2  1.00  1.00  1.00
 1982  90   176   166  10.9  23.0   7.2  0.00  0.33  0.00  0.00  0.00 -0.01  0.00  0.00  0.00  0.00  0.00  0.00 99.90  2.32  83.4   0.7 301.1  1.00  1.00  1.00
 1982  91   177   167  13.9  23.2   9.3  0.00  0.33  0.00  0.00  0.00 -0.01  0.00  0.00  0.00  0.00  0.00  0.00 99.90  2.27  82.6   0.8 300.2  1.00  1.00  1.00
 1982  92   178   168  17.0  23.4  11.4  0.00  0.33  0.00  0.00  0.00 -0.01  0.00  0.00  0.00  0.00  0.00  0.00 99.90  2.58  81.9   0.8 298.9  1.00  1.00  1.00
 1982  93   179   169   7.5  23.5   5.1  0.00  0.32  0.00  0.00  0.00 -0.01  0.00  0.25  0.00  0.00  0.00  0.00 80.85  2.24  80.7   1.0 297.4  1.00  1.00  1.00
 1982  94   180   170   5.2  23.7   3.6  0.00  0.32  0.00  0.00  0.00 -0.01  0.00  0.48  0.00  0.00  0.00  0.00 99.90  3.03  79.7   0.7 297.1  1.00  1.00  1.00
 1982  95   181   171   3.6  23.7   2.5  0.00  0.31  0.28  0.00  0.00 -0.01  0.00  0.64  0.00  0.00  0.00  0.00 99.90  6.70  85.3   0.4 297.1  1.00  1.00  1.00
 1982  96   182   172  -0.8  23.7   0.0  0.00  0.31  1.00  0.00  0.00 -0.01  0.00  1.00  0.00  0.00  0.00  0.00 99.90  4.82 110.5   0.6 297.3  1.00  1.00  1.00
 1982  97   183   173   3.0  23.8   2.1  0.00  0.31  0.39  0.00  0.00 -0.01  0.00  0.69  0.00  0.00  0.00  0.00 99.90 15.00 101.8   0.2 269.8  1.00  1.00  1.00
 1982  98   184   174   4.4  23.9   3.1  0.00  0.30  0.12  0.00  0.00 -0.01  0.00  0.56  0.00  0.00  0.00  0.00 99.90  6.03  99.3   0.5 252.0  1.00  1.00  1.00
 1982  99   185   175   4.1  24.0   2.9  0.00  0.30  0.17  0.00  0.00 -0.01  0.00  0.59  0.00  0.00  0.00  0.00 85.70  2.79  94.5   1.1 248.6  1.00  1.00  1.00
 1982 100   186   176   8.7  24.3   6.1  0.00  0.29  0.00  0.00  0.00 -0.01  0.00  0.13  0.00  0.00  0.00  0.00 75.75  2.82  91.0   1.2 243.5  1.00  1.00  1.00
 1982 101   187   177  13.6  24.6   9.7  0.00  0.29  0.00  0.00  0.00 -0.01  0.00  0.00  0.00  0.00  0.00  0.00 63.65  2.74  87.5   1.4 242.3  1.00  1.00  1.00
 1982 102   188   178  20.2  25.1  14.5  0.00  0.29  0.00  0.00  0.00 -0.01  0.00  0.02  0.00  0.00  0.00  0.00 46.58  2.25  85.9   1.8 240.5  1.00  1.00  1.00
 1982 103   189   179  16.1  25.5  11.6  0.00  0.28  0.00  0.00  0.00 -0.01  0.00  0.00  0.00  0.00  0.00  0.00 44.56  2.43  84.1   1.9 238.0  1.00  1.00  1.00
 1982 104   190   180  21.1  26.1  15.3  0.00  0.28  0.00  0.00  0.00 -0.01  0.00  0.08  0.00  0.00  0.00  0.00 35.96  2.22  82.1   2.3 235.9  1.00  1.00  1.00
 1982 105   191   181  24.2  26.9  17.6  0.00  0.27  0.00  0.00  0.00 -0.01  0.00  0.28  0.00  0.00  0.00  0.00 43.30  2.68  80.8   1.9 233.5  1.00  1.00  1.00
 1982 106   192   182  18.4  27.4  13.4  0.00  0.27  0.00  0.00  0.00 -0.01  0.00  0.00  0.00  0.00  0.00  0.00 94.36  6.00  80.4   0.9 231.3  1.00  1.00  1.00
 1982 107   193   183  10.0  27.7   7.3  0.00  0.27  0.00  0.00  0.00 -0.01  0.00  0.00  0.00  0.00  0.00  0.00 32.37  2.15  78.0   2.4 229.7  1.00  1.00  1.00
 1982 108   194   184  12.2  28.1   9.0  0.00  0.26  0.00  0.00  0.00 -0.01  0.00  0.00  0.00  0.00  0.00  0.00 30.11  2.27  75.6   2.5 228.4  1.00  1.00  1.00
 1982 109   195   185  15.3  28.6  11.3  0.00  0.26  0.00  0.00  0.00 -0.01  0.00  0.00  0.00  0.00  0.00  0.00 28.76  2.35  76.0   2.6 226.6  1.00  1.00  1.00
 1982 110   196   186   6.7  28.6   6.6  0.00  0.00  0.00  0.00  0.00 -0.01  0.00  0.33  0.00  0.00  0.00  0.00 50.73  3.46 119.9   2.4 224.2  1.00  1.00  1.00
 1982 111   197   187   7.0  28.6   7.0  0.00  0.00  0.00  0.00  0.00 -0.01  0.00  0.30  0.00  0.00  0.00  0.00 47.38  3.91 107.7   2.3 204.7  1.00  1.00  1.00
 1982 112   198   188   8.6  28.6   8.6  0.00  0.00  0.00  0.00  0.00 -0.01  0.00  0.14  0.00  0.00  0.00  0.00 36.12  3.40 101.3   2.8 188.0  1.00  1.00  1.00
 1982 113   199   189  11.7  28.6  11.7  0.00  0.00  0.00  0.00  0.00 -0.01  0.00  0.00  0.00  0.00  0.00  0.00 36.70  3.87  97.7   2.7 181.4  1.00  1.00  1.00
 1982 114   200   190  16.4  28.6  16.4  0.00  0.00  0.00  0.00  0.00 -0.01  0.00  0.00  0.00  0.00  0.00  0.00 36.37  4.22  94.6   2.6 179.7  1.00  1.00  1.00
 1982 115   201   191  13.1  28.6  13.1  0.00  0.00  0.00  0.00  0.00 -0.01  0.00  0.00  0.00  0.00  0.00  0.00 61.21  7.55  93.5   1.5 177.4  1.00  1.00  1.00
 1982 116   202   192  14.1  30.4  14.1  0.00  0.00  0.00  0.00  0.00 -0.01  0.00  0.00  0.00  0.00  0.00  0.00 26.03  3.45  89.3   3.4 176.0  1.00  1.00  1.00
 1982 117   203   193  10.6  30.9  10.6  0.00  0.00  0.00  0.00  0.00 -0.01  0.00  0.00  0.00  0.00  0.00  0.00 99.90 13.35 127.4   0.9 173.9  1.00  1.00  1.00
 1982 118   204   194   8.4  31.3   8.4  0.00  0.00  0.00  0.00  0.00 -0.01  0.00  0.16  0.00  0.00  0.00  0.00 99.90 15.00 125.2   0.2 154.1  1.00  1.00  1.00
 1982 119   205   195  10.0  31.8  10.0  0.00  0.00  0.00  0.00  0.00 -0.01  0.00  0.00  0.00  0.00  0.00  0.00 99.90 14.97 128.7   0.9 147.7  1.00  1.00  1.00
 1982 120   206   196  13.9  32.4  13.9  0.00  0.00  0.00  0.00  0.00 -0.01  0.00  0.00  0.00  0.00  0.00  0.00 83.07  8.79 121.6   1.5 138.8  1.00  1.00  1.00
 1982 121   207   197  16.1  33.2  16.1  0.00  0.00  0.00  0.00  0.00 -0.01  0.00  0.00  0.00  0.00  0.00  0.00 54.93  6.39 112.9   2.1 130.8  1.00  1.00  1.00
 1982 122   208   198  18.0  34.0  18.0  0.00  0.00  0.00  0.00  0.00 -0.01  0.00  0.00  0.00  0.00  0.00  0.00 39.04  4.86 108.4   2.8 119.2  1.00  1.00  1.00
 1982 123   209   199  22.0  35.1  22.0  0.00  0.00  0.00  0.00  0.00 -0.01  0.00  0.13  0.00  0.00  0.00  0.00 30.21  4.03 105.0   3.5 113.9  1.00  1.00  1.00
 1982 124   210   200  24.5  36.2  24.5  0.00  0.00  0.00  0.00  0.00 -0.01  0.00  0.30  0.00  0.00  0.00  0.00 23.42  3.38 100.8   4.3 111.9  1.00  1.00  1.00
 1982 125   211   201  18.0  37.1  18.0  0.00  0.00  0.00  0.00  0.00 -0.01  0.00  0.00  0.00  0.00  0.00  0.00 99.90 15.00 100.6   0.9 110.5  1.00  1.00  1.00
 1982 126   212   202  10.9  37.6  10.9  0.00  0.00  0.00  0.00  0.00 -0.01  0.00  0.00  0.00  0.00  0.00  0.00 63.22  7.56 128.0   2.0 111.1  1.00  1.00  1.00
 1982 127   213   203  14.4  38.2  14.4  0.00  0.00  0.00  0.00  0.00 -0.01  0.00  0.00  0.00  0.00  0.00  0.00 29.11  3.68 123.7   4.3 109.9  1.00  1.00  1.00
 1982 128   214   204  20.5  39.2  20.5  0.00  0.00  0.00  0.00  0.00 -0.01  0.00  0.04  0.00  0.00  0.00  0.00 23.06  3.32 114.2   5.0 106.9  1.00  1.00  1.00
 1982 129   215   205  22.5  40.3  22.5  0.00  0.00  0.00  0.00  0.00 -0.01  0.00  0.17  0.00  0.00  0.00  0.00 23.57  3.69 109.7   4.7 100.3  1.00  1.00  1.00
 1982 130   216   206  22.5  41.5  22.5  0.00  0.00  0.00  0.00  0.00 -0.01  0.00  0.17  0.00  0.00  0.00  0.00 31.08  5.19 106.8   3.4  99.2  1.00  1.00  1.00
 1982 131   217   207  22.0  42.6  22.0  0.00  0.00  0.00  0.00  0.00 -0.01  0.00  0.13  0.00  0.00  0.00  0.00 24.57  4.32 103.9   4.2  99.8  1.00  1.00  1.00
 1982 132   218   208  18.9  43.6  18.9  0.00  0.00  0.00  0.00  0.00 -0.01  0.00  0.00  0.00  0.00  0.00  0.00 71.80 10.47 129.1   1.8 100.4  1.00  1.00  1.00
 1982 133   219   209  20.0  44.7  20.0  0.00  0.00  0.00  0.00  0.00 -0.01  0.00  0.00  0.00  0.00  0.00  0.00 65.46  9.78 126.9   1.9 100.5  1.00  1.00  1.00
 1982 134   220   210  17.8  45.6  17.8  0.00  0.00  0.00  0.00  0.00 -0.01  0.00  0.00  0.00  0.00  0.00  0.00 62.90  9.62 125.0   2.0 100.5  1.00  1.00  1.00
 1982 135   221   211  17.8  46.5  17.8  0.00  0.00  0.00  0.00  0.00 -0.01  0.00  0.00  0.00  0.00  0.00  0.00 28.54  4.21 130.7   4.6 100.5  1.00  1.00  1.00
 1982 136   222   212  19.5  47.6  19.5  0.00  0.00  0.00  0.00  0.00 -0.01  0.00  0.00  0.00  0.00  0.00  0.00 64.78  9.90 129.6   2.0 100.2  1.00  1.00  1.00
 1982 137   223   213  19.5  48.6  19.5  0.00  0.00  0.00  0.00  0.00 -0.01  0.00  0.00  0.00  0.00  0.00  0.00 45.08  6.90 130.2   2.9  99.8  1.00  1.00  1.00
 1982 138   224   214  20.3  49.7  20.3  0.00  0.00  0.00  0.00  0.00 -0.01  0.00  0.02  0.00  0.00  0.00  0.00 28.04  4.48 126.2   4.5  99.2  1.00  1.00  1.00
 1982 139   225   215  23.6  53.4  23.6  0.00  0.00  0.00  0.00  0.00 -0.01  0.00  0.24  0.00  0.00  0.00  0.00 27.43  4.63 121.9   4.4  98.7  1.00  1.00  1.00
 1982 140   226   216  21.1  57.6  21.1  0.00  0.00  0.00  0.00  0.00 -0.01  0.00  0.07  0.00  0.00  0.00  0.00 47.74  8.33 119.8   2.5  98.9  1.00  1.00  1.00
 1982 141   227   217  18.0  63.1  18.0  0.00  0.00  0.00  0.00  0.00 -0.01  0.00  0.00  0.00  0.00  0.00  0.00 39.87  6.03 138.8   3.5  99.6  1.00  1.00  1.00
 1982 142   228   218  16.1  70.2  16.1  0.00  0.00  0.00  0.00  0.00 -0.01  0.00  0.00  0.00  0.00  0.00  0.00 50.17  7.85 134.9   2.7  99.4  1.00  1.00  1.00
 1982 143   229   219  18.0  71.6  18.0  0.00  0.00  0.00  0.00  0.00 -0.01  0.00  0.00  0.00  0.00  0.00  0.00 33.18  5.49 127.4   3.8  98.9  1.00  1.00  1.00
 1982 144   230   220  18.7  73.0  18.7  0.00  0.00  0.00  0.00  0.00 -0.01  0.00  0.00  0.00  0.00  0.00  0.00 83.18 13.89 126.3   1.5  96.4  1.00  1.00  1.00
 1982 145   231   221  20.0  74.5  20.0  0.00  0.00  0.00  0.00  0.00 -0.01  0.00  0.00  0.00  0.00  0.00  0.00 60.80  9.05 140.8   2.3  97.0  1.00  1.00  1.00
 1982 146   232   222  16.4  75.8  16.4  0.00  0.00  0.00  0.00  0.00 -0.01  0.00  0.00  0.00  0.00  0.00  0.00 38.93  5.24 154.9   4.0  97.0  1.00  1.00  1.00
 1982 147   233   223  18.4  77.2  18.4  0.00  0.00  0.00  0.00  0.00 -0.01  0.00  0.00  0.00  0.00  0.00  0.00 32.15  4.47 149.6   4.7  94.0  1.00  1.00  1.00
 1982 148   234   224  23.3  79.0  23.3  0.00  0.00  0.00  0.00  0.00 -0.01  0.00  0.22  0.00  0.00  0.00  0.00 49.40  7.44 137.6   2.8  90.3  1.00  1.00  1.00
 1982 149   235   225  21.4  80.2  21.4  0.00  0.00  0.00  0.00  0.00 -0.01  0.00  0.09  0.00  0.00  0.00  0.00 39.67  5.24 156.0   3.9  83.2  1.00  1.00  1.00
 1982 150   236   226  20.5  80.6  20.5  0.00  0.00  0.00  0.00  0.00 -0.01  0.00  0.04  0.00  0.00  0.00  0.00 50.27  6.94 148.9   3.0  80.9  1.00  1.00  1.00
 1982 151   237   227  17.8  80.9  17.8  0.00  0.00  0.00  0.00  0.00 -0.01  0.00  0.00  0.00  0.00  0.00  0.00 68.27  9.07 154.0   2.3  77.9  1.00  1.00  1.00
 1982 152   238   228  12.8  81.2  12.8  0.00  0.00  0.00  0.00  0.00 -0.01  0.00  0.00  0.00  0.00  0.00  0.00 34.20  5.00 139.2   4.1  73.0  1.00  1.00  1.00
 1982 153   239   229  15.2  81.5  15.2  0.00  0.00  0.00  0.00  0.00 -0.01  0.00  0.00  0.00  0.00  0.00  0.00 86.26 12.72 137.7   1.6  65.8  1.00  1.00  1.00
 1982 154   240   230  15.0  81.8  15.0  0.00  0.00  0.00  0.00  0.00 -0.01  0.00  0.00  0.00  0.00  0.00  0.00 99.90 15.00 137.8   1.1  63.4  1.00  1.00  1.00
 1982 155   241   231  17.0  82.1  17.0  0.00  0.00  0.00  0.00  0.00 -0.01  0.00  0.00  0.00  0.00  0.00  0.00 62.75  9.12 138.0   2.2  61.7  1.00  1.00  0.95
 1982 156   242   232  17.8  82.5  17.8  0.00  0.00  0.00  0.00  0.00 -0.01  0.00  0.00  0.00  0.00  0.00  0.00 40.16  5.96 134.4   3.3  60.4  0.99  1.00  0.91
 1982 157   243   233  25.5  83.0  25.5  0.00  0.00  0.05  0.00  0.02 -0.01  0.00  0.37  0.00  0.02  0.00  0.02 38.50  5.84 131.0   3.4  59.4  0.89  0.99  0.87
 1982 158   244   234  20.2  83.4  20.2  0.00  0.00  0.00  0.00  0.15 -0.01  0.00  0.02  0.00  0.15  0.00  0.15 32.89  4.68 138.9   4.2  58.6  0.81  0.97  0.85
 1982 159   245   235  25.8  83.9  25.8  0.00  0.00  0.08  0.00  0.26 -0.01  0.00  0.39  0.00  0.26  0.00  0.26 36.06  5.26 135.1   3.7  58.2  0.73  0.96  0.83
 1982 160   246   236  22.8  84.4  22.8  0.00  0.00  0.00  0.00  0.38 -0.01  0.00  0.18  0.00  0.38  0.00  0.38 35.48  4.67 148.9   4.2  57.6  0.66  0.95  0.81
 1982 161   247   237  16.4  84.7  16.4  0.00  0.00  0.00  0.00  0.48 -0.01  0.00  0.00  0.00  0.48  0.00  0.48 33.65  4.63 141.9   4.2  56.6  0.60  0.94  0.80
 1982 162   248   238  18.0  85.1  18.0  0.00  0.00  0.00  0.00  0.57 -0.01  0.00  0.00  0.00  0.57  0.00  0.57 85.90 11.89 140.2   1.6  55.4  0.55  0.94  0.79
 1982 163   249   239  19.8  85.5  19.8  0.00  0.00  0.00  0.00  0.65 -0.01  0.00  0.00  0.00  0.65  0.00  0.65 46.97  6.59 137.3   2.9  55.5  0.51  0.94  0.78
 1982 164   250   240  20.9  85.9  20.9  0.00  0.00  0.00  0.00  0.71 -0.01  0.00  0.06  0.00  0.71  0.00  0.71 99.90 15.00 136.2   1.2  55.0  0.00  0.94  0.77
 1982 165   251   241  23.9  86.4  23.9  0.00  0.00  0.00  0.00  0.00 -0.01  0.00  0.26  0.00  0.00  0.00  0.00 99.90 15.00 135.9   0.0  54.8  0.00  0.94  0.77
 1982 166   252   242  22.5  86.8  22.5  0.00  0.00  0.00  0.00  0.00 -0.01  0.00  0.17  0.00  0.00  0.00  0.00 99.90 15.00 153.6   0.0  54.7  0.00  0.95  0.77
 1982 167   253   243  18.6  87.2  18.6  0.00  0.00  0.00  0.00  0.00 -0.01  0.00  0.00  0.00  0.00  0.00  0.00 99.90 15.00 148.9   0.0  54.4  0.00  0.95  0.76
 1982 168   254   244  21.1  87.6  21.1  0.00  0.00  0.00  0.00  0.00 -0.01  0.00  0.07  0.00  0.00  0.00  0.00 99.90 15.00 143.4   0.0  54.0  0.00  0.96  0.76
 1982 169   255   245  21.1  88.0  21.1  0.00  0.00  0.00  0.00  0.00 -0.01  0.00  0.07  0.00  0.00  0.00  0.00 99.90 15.00 140.0   0.0  53.7  0.00  0.96  0.76
 1982 170   256   246  19.2  88.4  19.2  0.00  0.00  0.00  0.00  0.00 -0.01  0.00  0.00  0.00  0.00  0.00  0.00 99.90 15.00 139.2   0.0  53.5  0.00  0.97  0.76
 1982 171   257   247  22.8  88.9  22.8  0.00  0.00  0.00  0.00  0.00 -0.01  0.00  0.18  0.00  0.00  0.00  0.00 99.90 15.00 138.5   0.0  53.3  0.00  0.98  0.76
 1982 172   258   248  22.2  89.3  22.2  0.00  0.00  0.00  0.00  0.00 -0.01  0.00  0.15  0.00  0.00  0.00  0.00 99.90 15.00 137.7   0.0  53.2  0.00  0.99  0.76
 1982 173   259   249  20.8  89.7  20.8  0.00  0.00  0.00  0.00  0.00 -0.01  0.00  0.06  0.00  0.00  0.00  0.00 99.90 15.00 148.9   0.0  52.9  0.00  0.99  0.76
 1982 174   260   250  21.7  90.4  21.7  0.00  0.00  0.00  0.00  0.00 -0.01  0.00  0.11  0.00  0.00  0.00  0.00 99.90 15.00 145.9   0.0  52.5  0.00  1.00  0.76
