$GROWTH ASPECTS SECONDARY OUTPUT FILE

*DSSAT Cropping System Model Ver. 4.5.1.023 -Stub         OCT 13, 2014; 10:45:28
                                                                                
*RUN   1        : DRYLAND  - 0 KG N/HA      CSCER045 KSAS8101    1              
 MODEL          : CSCER045 - Wheat                                              
 EXPERIMENT     : KSAS8101 WH                                                   
 DATA PATH      :                                                               
 TREATMENT  1   : DRYLAND  - 0 KG N/HA      CSCER045                            
  
@YEAR DOY   DAS   DAP TMEAN  GSTD  RSTD LAIPD LAISD  LAID  CHTD SDWAD SNW0D SNW1D  H#AD  HWUD SHRTD  PTFD  RDPD  RL1D  RL2D  RL3D  RL4D  RL5D  RL6D  RL7D  RL8D  RL9D RL10D
 1981 289    10     0  12.8     0  1.03     0  0.00     0     0  46.0     0     0     0     0  0.00  0.00 0.055  0.00  0.00  0.00  0.00  0.00  0.00  0.00  0.00  0.00  0.00
 1981 290    11     1  16.1 5.580  1.03     0  0.00     0     0  46.0     0     0     0     0  0.00  0.00 0.055  0.00  0.00  0.00  0.00  0.00  0.00  0.00  0.00  0.00  0.00
 1981 291    12     2   9.4 6.540  1.03     0  0.00     0     0  45.3     0     0     0     0  0.00  0.00 0.069  0.01  0.00  0.00  0.00  0.00  0.00  0.00  0.00  0.00  0.00
 1981 292    13     3  12.2 7.812  1.03     0  0.00     0     0  44.4     0 .0058     0     0  0.00  0.00 0.087  0.02  0.01  0.00  0.00  0.00  0.00  0.00  0.00  0.00  0.00
 1981 293    14     4  17.5 9.688  1.03     0  0.00     0     0  43.0     0 .0190     0     0  0.00  0.00 0.114  0.03  0.02  0.00  0.00  0.00  0.00  0.00  0.00  0.00  0.00
 1981 294    15     5  11.7 10.00  1.03     0  0.00     0     0  42.1     0 .0428     0     0  0.00  0.00 0.131  0.03  0.02  0.00  0.00  0.00  0.00  0.00  0.00  0.00  0.00
 1981 295    16     6   6.2 10.08  1.03 .0016  0.00 .0016 0.500  41.0     0 .0736     0     0  0.14  0.75 0.141  0.04  0.02  0.00  0.00  0.00  0.00  0.00  0.00  0.00  0.00
 1981 296    17     7   1.9 10.11  1.03 .0018  0.00 .0018 0.860  40.9     0 0.108     0     0  0.17  0.75 0.143  0.04  0.02  0.00  0.00  0.00  0.00  0.00  0.00  0.00  0.00
 1981 297    18     8   6.1 10.19  1.04 .0033  0.00 .0033 0.864  39.8     0 0.143     0     0  0.29  0.75 0.153  0.04  0.03  0.00  0.00  0.00  0.00  0.00  0.00  0.00  0.00
 1981 298    19     9   8.4 10.30  1.04 .0063  0.00 .0063 0.878  38.2     0 0.182     0     0  0.50  0.75 0.163  0.04  0.03  0.00  0.00  0.00  0.00  0.00  0.00  0.00  0.00
 1981 299    20    10   7.8 10.40  1.04 .0089  0.00 .0089 0.903  36.9     0 0.224     0     0  0.75  0.75 0.173  0.05  0.03  0.00  0.00  0.00  0.00  0.00  0.00  0.00  0.00
 1981 300    21    11  13.7 10.58  1.04 .0147  0.00 .0147 0.931  34.0     0 0.271     0     0  1.14  0.75 0.190  0.05  0.04  0.00  0.00  0.00  0.00  0.00  0.00  0.00  0.00
 1981 301    22    12  16.2 10.79  1.04 .0215  0.00 .0215 0.987  30.7     0 0.324     0     0  1.53  0.75 0.210  0.05  0.04  0.00  0.00  0.00  0.00  0.00  0.00  0.00  0.00
 1981 302    23    13  17.5 11.02  1.05 .0291  0.00 .0291 1.054  27.2     0 0.384     0     0  1.93  0.75 0.232  0.06  0.05  0.00  0.00  0.00  0.00  0.00  0.00  0.00  0.00
 1981 303    24    14  16.1 11.23  1.05 .0370  0.00 .0370 1.127  23.3     0 0.454     0     0  2.13  0.75 0.252  0.06  0.05  0.01  0.00  0.00  0.00  0.00  0.00  0.00  0.00
 1981 304    25    15  13.9 11.42  1.05 .0438  0.00 .0438 1.193  19.9     0 0.531     0     0  2.27  0.75 0.270  0.07  0.06  0.01  0.00  0.00  0.00  0.00  0.00  0.00  0.00
 1981 305    26    16  12.2 11.58  1.05 .0498  0.00 .0498 1.250  17.0     0 0.614     0     0  2.43  0.75 0.285  0.07  0.06  0.01  0.00  0.00  0.00  0.00  0.00  0.00  0.00
 1981 306    27    17  10.2 11.71  1.05 .0548  0.00 .0548 1.300  14.7     0 0.703     0     0  2.58  0.75 0.298  0.07  0.06  0.01  0.00  0.00  0.00  0.00  0.00  0.00  0.00
 1981 307    28    18  11.4 11.86  1.06 .0604  0.00 .0604 1.344  13.0     0 0.797     0     0  2.81  0.75 0.312  0.07  0.06  0.01  0.00  0.00  0.00  0.00  0.00  0.00  0.00
 1981 308    29    19  10.2 12.00  1.06 .0654  0.00 .0654 1.397  11.9     0 0.895     0     0  2.96  0.75 0.321  0.07  0.07  0.02  0.00  0.00  0.00  0.00  0.00  0.00  0.00
 1981 309    30    20  10.6 12.11  1.06 .0702  0.00 .0702 1.447  11.2     0     1     0     0  3.23  0.75 0.329  0.07  0.07  0.02  0.00  0.00  0.00  0.00  0.00  0.00  0.00
 1981 310    31    21   6.7 12.18  1.06 .0722  0.00 .0722 1.502  10.9     0 1.108     0     0  3.46  0.75 0.335  0.07  0.07  0.02  0.00  0.00  0.00  0.00  0.00  0.00  0.00
 1981 311    32    22   9.7 12.28  1.06 .0765  0.00 .0765 1.539  10.5     0 1.230     0     0  3.62  0.75 0.343  0.08  0.08  0.03  0.00  0.00  0.00  0.00  0.00  0.00  0.00
 1981 312    33    23  10.9 12.40  1.07 .0792  0.00 .0792 1.597   9.8     0 1.360     0     0  3.61  0.75 0.352  0.08  0.08  0.03  0.00  0.00  0.00  0.00  0.00  0.00  0.00
 1981 313    34    24   2.5 12.42  1.07 .0794  0.00 .0794 1.667   9.8     0 1.493     0     0  3.71  0.75 0.354  0.08  0.08  0.03  0.00  0.00  0.00  0.00  0.00  0.00  0.00
 1981 314    35    25   5.6 12.48  1.07 .0808  0.00 .0808 1.683   9.7     0 1.631     0     0  3.86  0.75 0.358  0.08  0.09  0.04  0.00  0.00  0.00  0.00  0.00  0.00  0.00
 1981 315    36    26   7.5 12.56  1.07 .0834  0.00 .0834 1.723   9.6     0 1.781     0     0  3.99  0.75 0.365  0.08  0.09  0.04  0.00  0.00  0.00  0.00  0.00  0.00  0.00
 1981 316    37    27  10.9 12.67  1.07 .0883  0.00 .0883 1.780   9.5     0 1.941     0     0  4.10  0.75 0.374  0.08  0.10  0.05  0.00  0.00  0.00  0.00  0.00  0.00  0.00
 1981 317    38    28  10.6 12.78  1.08 .0930  0.00 .0930 1.869   9.4     0 2.113     0     0  4.20  0.75 0.382  0.09  0.10  0.05  0.00  0.00  0.00  0.00  0.00  0.00  0.00
 1981 318    39    29  13.0 12.92  1.08 .0989  0.00 .0989 1.957   9.3     0 2.295     0     0  4.29  0.75 0.393  0.09  0.10  0.05  0.00  0.00  0.00  0.00  0.00  0.00  0.00
 1981 319    40    30  15.0 13.08  1.09 0.106  0.00 0.106 2.069   9.3     0 2.486     0     0  4.37  0.75 0.405  0.09  0.11  0.06  0.00  0.00  0.00  0.00  0.00  0.00  0.00
 1981 320    41    31  17.5 13.26  1.09 0.115  0.00 0.115 2.199   9.3     0 2.687     0     0  4.45  0.75 0.420  0.10  0.11  0.06  0.01  0.00  0.00  0.00  0.00  0.00  0.00
 1981 321    42    32  12.8 13.40  1.10 0.122  0.00 0.122 2.350   9.2     0 2.901     0     0  4.53  0.75 0.430  0.10  0.12  0.06  0.01  0.00  0.00  0.00  0.00  0.00  0.00
 1981 322    43    33  14.1 13.55  1.10 0.129  0.00 0.129 2.459   9.2     0 3.129     0     0  4.60  0.75 0.442  0.11  0.12  0.07  0.01  0.00  0.00  0.00  0.00  0.00  0.00
 1981 323    44    34   4.1 13.59  1.10 0.130  0.00 0.130 2.581   9.2     0 3.365     0     0  4.64  0.76 0.445  0.11  0.12  0.07  0.01  0.00  0.00  0.00  0.00  0.00  0.00
 1981 324    45    35   0.0 13.59  1.10 0.130  0.00 0.130 2.616   9.2     0 3.603     0     0  4.68  0.76 0.445  0.11  0.12  0.07  0.01  0.00  0.00  0.00  0.00  0.00  0.00
 1981 325    46    36   2.5 13.62  1.11 0.130  0.00 0.130 2.616   9.2     0 3.839     0     0  4.73  0.76 0.447  0.11  0.13  0.07  0.01  0.00  0.00  0.00  0.00  0.00  0.00
 1981 326    47    37   7.0 13.69  1.11 0.133  0.00 0.133 2.640   9.2     0 4.082     0     0  4.79  0.76 0.453  0.11  0.13  0.07  0.01  0.00  0.00  0.00  0.00  0.00  0.00
 1981 327    48    38  10.6 13.80  1.11 0.138  0.00 0.138 2.709   9.2     0 4.334     0     0  4.84  0.76 0.462  0.12  0.14  0.08  0.01  0.00  0.00  0.00  0.00  0.00  0.00
 1981 328    49    39   6.4 13.87  1.12 0.141  0.00 0.141 2.819   9.2     0 4.600     0     0  4.90  0.76 0.467  0.13  0.14  0.08  0.01  0.00  0.00  0.00  0.00  0.00  0.00
 1981 329    50    40  12.2 14.00  1.12 0.147  0.00 0.147 2.888   9.2     0 4.878     0     0  4.95  0.76 0.477  0.13  0.15  0.08  0.01  0.00  0.00  0.00  0.00  0.00  0.00
 1981 330    51    41   6.7 14.07  1.12 0.149  0.00 0.149 3.023   9.2     0 5.169     0     0  4.99  0.76 0.482  0.14  0.15  0.09  0.01  0.00  0.00  0.00  0.00  0.00  0.00
 1981 331    52    42  -0.8 14.07  1.12 0.149  0.00 0.149 3.097   9.2     0 5.469     0     0  5.03  0.76 0.482  0.14  0.15  0.08  0.01  0.00  0.00  0.00  0.00  0.00  0.00
 1981 332    53    43   2.5 14.09  1.13 0.150  0.00 0.149 3.097   9.2 0.144 5.767     0     0  5.07  0.76 0.484  0.14  0.15  0.09  0.01  0.00  0.00  0.00  0.00  0.00  0.00
 1981 333    54    44   3.0 14.13  1.13 0.150  0.00 0.149 3.127   9.2 0.319 6.068     0     0  5.11  0.76 0.487  0.14  0.15  0.09  0.01  0.00  0.00  0.00  0.00  0.00  0.00
 1981 334    55    45   5.9 14.19  1.13 0.152  0.00 0.149 3.165   9.2 0.655 6.371     0     0  5.14  0.76 0.492  0.14  0.15  0.09  0.01  0.00  0.00  0.00  0.00  0.00  0.00
 1981 335    56    46   2.2 14.21  1.13 0.153  0.00 0.149 3.240   9.2 0.781 6.674     0     0  5.18  0.76 0.493  0.14  0.15  0.09  0.01  0.00  0.00  0.00  0.00  0.00  0.00
 1981 336    57    47   3.6 14.25  1.13 0.154  0.01 0.148 3.269   9.2 0.988 6.976     0     0  5.22  0.76 0.496  0.14  0.15  0.09  0.01  0.00  0.00  0.00  0.00  0.00  0.00
 1981 337    58    48   4.5 14.30  1.14 0.155  0.01 0.148 3.318   9.2 1.244 7.287     0     0  5.25  0.76 0.500  0.14  0.16  0.09  0.02  0.00  0.00  0.00  0.00  0.00  0.00
 1981 338    59    49   3.9 14.34  1.14 0.156  0.01 0.148 3.380   9.2 1.468 7.612     0     0  5.28  0.76 0.503  0.14  0.16  0.10  0.02  0.00  0.00  0.00  0.00  0.00  0.00
 1981 339    60    50   3.9 14.38  1.14 0.157  0.01 0.148 3.436   9.2 1.693 7.948     0     0  5.31  0.76 0.507  0.14  0.17  0.10  0.02  0.00  0.00  0.00  0.00  0.00  0.00
 1981 340    61    51   8.9 14.47  1.15 0.161  0.01 0.150 3.494   9.2 2.205 8.287     0     0  5.34  0.76 0.514  0.14  0.17  0.10  0.02  0.00  0.00  0.00  0.00  0.00  0.00
 1981 341    62    52  11.7 14.59  1.15 0.168  0.01 0.153 3.630   9.2 2.879 8.637     0     0  5.36  0.76 0.523  0.15  0.18  0.11  0.02  0.00  0.00  0.00  0.00  0.00  0.00
 1981 342    63    53   3.7 14.63  1.15 0.169  0.02 0.153 3.812   9.2 3.090 9.000     0     0  5.39  0.76 0.526  0.15  0.18  0.11  0.02  0.00  0.00  0.00  0.00  0.00  0.00
 1981 343    64    54   2.2 14.66  1.16 0.169  0.02 0.153 3.869   9.2 3.220 9.372     0     0  5.43  0.76 0.528  0.15  0.18  0.11  0.02  0.00  0.00  0.00  0.00  0.00  0.00
 1981 344    65    55  -0.3 14.66  1.16 0.169  0.02 0.153 3.905   9.2 3.220 9.748     0     0  5.47  0.76 0.528  0.15  0.18  0.11  0.02  0.00  0.00  0.00  0.00  0.00  0.00
 1981 345    66    56   2.5 14.68  1.16 0.170  0.02 0.152 3.905   9.2 3.365 10.12     0     0  5.51  0.76 0.530  0.15  0.18  0.11  0.02  0.00  0.00  0.00  0.00  0.00  0.00
 1981 346    67    57   2.8 14.71  1.16 0.170  0.02 0.152 3.948   9.2 3.526 10.49     0     0  5.55  0.76 0.533  0.15  0.18  0.11  0.02  0.00  0.00  0.00  0.00  0.00  0.00
 1981 347    68    58   2.5 14.74  1.16 0.171  0.02 0.152 3.996   9.2 3.671 10.86     0     0  5.59  0.76 0.535  0.15  0.18  0.11  0.02  0.00  0.00  0.00  0.00  0.00  0.00
 1981 348    69    59   0.5 14.74  1.16 0.171  0.02 0.151 4.040   9.2 3.703 11.23     0     0  5.63  0.76 0.535  0.14  0.18  0.11  0.02  0.01  0.00  0.00  0.00  0.00  0.00
 1981 349    70    60   0.0 14.74  1.16 0.171  0.02 0.151 4.050   9.2 3.703 11.60     0     0  5.68  0.76 0.535  0.14  0.17  0.11  0.02  0.00  0.00  0.00  0.00  0.00  0.00
 1981 350    71    61  -4.7 14.74  1.16 0.171  0.02 0.151 4.050   9.2 3.703 11.97     0     0  5.73  0.76 0.535  0.14  0.17  0.11  0.02  0.00  0.00  0.00  0.00  0.00  0.00
 1981 351    72    62 -12.5 14.74  1.16 0.171  0.09 .0757 4.050   9.2 33.13 12.33     0     0  2.89  0.76 0.535  0.14  0.17  0.11  0.02  0.00  0.00  0.00  0.00  0.00  0.00
 1981 352    73    63 -13.6 14.74  1.16 0.171  0.15 .0212 4.050   9.2 47.84 12.69     0     0  0.97  0.76 0.535  0.14  0.17  0.11  0.02  0.00  0.00  0.00  0.00  0.00  0.00
 1981 353    74    64 -11.4 14.74  1.16 0.171  0.16 .0153 4.050   9.2 51.96 13.04     0     0  0.71  0.76 0.535  0.14  0.17  0.11  0.02  0.00  0.00  0.00  0.00  0.00  0.00
 1981 354    75    65  -4.2 14.74  1.16 0.171  0.16 .0153 4.050   9.2 51.96 13.40     0     0  0.72  0.76 0.535  0.14  0.17  0.10  0.02  0.00  0.00  0.00  0.00  0.00  0.00
 1981 355    76    66   2.0 14.76  1.16 0.171  0.16 .0155 4.050   9.2 51.96 13.75     0     0  0.73  0.76 0.537  0.14  0.17  0.10  0.02  0.00  0.00  0.00  0.00  0.00  0.00
 1981 356    77    67   1.7 14.78  1.17 0.171  0.16 .0157 4.091   9.2 51.96 14.09     0     0  0.73  0.76 0.538  0.14  0.17  0.10  0.02  0.00  0.00  0.00  0.00  0.00  0.00
 1981 357    78    68  -1.1 14.78  1.17 0.171  0.16 .0157 4.126   9.2 51.96 14.44     0     0  0.74  0.76 0.538  0.13  0.16  0.10  0.02  0.00  0.00  0.00  0.00  0.00  0.00
 1981 358    79    69  -0.3 14.78  1.17 0.171  0.16 .0157 4.126   9.2 51.96 14.78     0     0  0.75  0.76 0.538  0.13  0.16  0.10  0.02  0.00  0.00  0.00  0.00  0.00  0.00
 1981 359    80    70   1.6 14.80  1.17 0.171  0.16 .0158 4.126   9.2 51.96 15.12     0     0  0.76  0.76 0.540  0.13  0.16  0.10  0.02  0.00  0.00  0.00  0.00  0.00  0.00
 1981 360    81    71  -1.7 14.80  1.17 0.171  0.16 .0158 4.161   9.2 51.96 15.46     0     0  0.76  0.76 0.540  0.13  0.16  0.10  0.02  0.00  0.00  0.00  0.00  0.00  0.00
 1981 361    82    72  -3.1 14.80  1.17 0.171  0.16 .0158 4.161   9.2 51.96 15.79     0     0  0.77  0.76 0.540  0.13  0.16  0.10  0.02  0.00  0.00  0.00  0.00  0.00  0.00
 1981 362    83    73  -4.4 14.80  1.17 0.171  0.16 .0158 4.161   9.2 51.96 16.13     0     0  0.78  0.76 0.540  0.13  0.16  0.10  0.02  0.00  0.00  0.00  0.00  0.00  0.00
 1981 363    84    74  -3.6 14.80  1.17 0.171  0.16 .0158 4.161   9.2 51.96 16.46     0     0  0.78  0.76 0.540  0.13  0.16  0.10  0.02  0.00  0.00  0.00  0.00  0.00  0.00
 1981 364    85    75   1.7 14.82  1.17 0.171  0.16 .0160 4.161   9.2 51.96 16.78     0     0  0.79  0.76 0.541  0.13  0.16  0.10  0.02  0.00  0.00  0.00  0.00  0.00  0.00
 1981 365    86    76   0.0 14.82  1.17 0.171  0.16 .0160 4.196   9.2 51.96 17.11     0     0  0.80  0.76 0.541  0.13  0.15  0.10  0.02  0.00  0.00  0.00  0.00  0.00  0.00
 1982   1    87    77  -6.1 14.82  1.17 0.171  0.16 .0160 4.196   9.2 51.96 17.43     0     0  0.81  0.76 0.541  0.13  0.15  0.10  0.02  0.00  0.00  0.00  0.00  0.00  0.00
 1982   2    88    78   0.8 14.83  1.17 0.171  0.16 .0161 4.196   9.2 51.96 17.75     0     0  0.81  0.76 0.542  0.12  0.15  0.09  0.02  0.00  0.00  0.00  0.00  0.00  0.00
 1982   3    89    79  -6.3 14.83  1.17 0.171  0.16 .0161 4.214   9.2 51.96 18.07     0     0  0.82  0.76 0.542  0.12  0.15  0.09  0.02  0.00  0.00  0.00  0.00  0.00  0.00
 1982   4    90    80  -6.1 14.83  1.17 0.171  0.16 .0161 4.214   9.2 51.96 18.38     0     0  0.83  0.76 0.542  0.12  0.15  0.09  0.02  0.00  0.00  0.00  0.00  0.00  0.00
 1982   5    91    81  -1.6 14.83  1.17 0.171  0.16 .0161 4.214   9.2 51.96 18.69     0     0  0.83  0.76 0.542  0.12  0.15  0.09  0.02  0.00  0.00  0.00  0.00  0.00  0.00
 1982   6    92    82 -10.9 14.83  1.17 0.171  0.16 .0134 4.214   9.2 53.82 19.00     0     0  0.70  0.76 0.542  0.12  0.15  0.09  0.02  0.00  0.00  0.00  0.00  0.00  0.00
 1982   7    93    83 -11.4 14.83  1.17 0.171  0.16 .0096 4.214   9.2 56.35 19.31     0     0  0.52  0.76 0.542  0.12  0.15  0.09  0.02  0.00  0.00  0.00  0.00  0.00  0.00
 1982   8    94    84  -2.8 14.83  1.17 0.171  0.16 .0096 4.214   9.2 56.35 19.61     0     0  0.52  0.76 0.542  0.12  0.14  0.09  0.02  0.00  0.00  0.00  0.00  0.00  0.00
 1982   9    95    85  -8.4 14.83  1.17 0.171  0.16 .0096 4.214   9.2 56.35 19.91     0     0  0.52  0.76 0.542  0.12  0.14  0.09  0.02  0.00  0.00  0.00  0.00  0.00  0.00
 1982  10    96    86 -18.6 14.83  1.17 0.171  0.17 .0007 4.214   9.2 59.62 20.21     0     0  0.13  0.76 0.542  0.12  0.14  0.09  0.02  0.00  0.00  0.00  0.00  0.00  0.00
 1982  11    97    87 -13.4 14.83  1.17 0.171  0.17 .0007 4.214   9.2 59.62 20.51     0     0  0.13  0.76 0.542  0.12  0.14  0.09  0.02  0.00  0.00  0.00  0.00  0.00  0.00
 1982  12    98    88  -9.1 14.83  1.17 0.171  0.17 .0007 4.214   9.2 59.62 20.81     0     0  0.13  0.76 0.542  0.12  0.14  0.09  0.02  0.00  0.00  0.00  0.00  0.00  0.00
 1982  13    99    89 -14.5 14.83  1.17 0.171  0.17 .0007 4.214   9.2 59.62 21.10     0     0  0.14  0.76 0.542  0.11  0.14  0.09  0.02  0.00  0.00  0.00  0.00  0.00  0.00
 1982  14   100    90  -3.0 14.83  1.17 0.171  0.17 .0007 4.214   9.2 59.62 21.39     0     0  0.14  0.76 0.542  0.11  0.14  0.09  0.02  0.00  0.00  0.00  0.00  0.00  0.00
 1982  15   101    91  -1.4 14.83  1.17 0.171  0.17 .0007 4.214   9.2 59.62 21.68     0     0  0.14  0.76 0.542  0.11  0.14  0.08  0.02  0.00  0.00  0.00  0.00  0.00  0.00
 1982  16   102    92 -14.1 14.83  1.17 0.171  0.17 .0007 4.214   9.2 59.62 21.96     0     0  0.14  0.76 0.542  0.11  0.14  0.08  0.02  0.00  0.00  0.00  0.00  0.00  0.00
 1982  17   103    93  -8.7 14.83  1.17 0.171  0.17 .0007 4.214   9.2 59.62 22.25     0     0  0.14  0.76 0.542  0.11  0.13  0.08  0.02  0.00  0.00  0.00  0.00  0.00  0.00
 1982  18   104    94   0.3 14.83  1.17 0.171  0.17 .0007 4.214   9.2 59.62 22.53     0     0  0.14  0.76 0.542  0.11  0.13  0.08  0.02  0.00  0.00  0.00  0.00  0.00  0.00
 1982  19   105    95  -0.6 14.83  1.17 0.171  0.17 .0007 4.221   9.2 59.62 22.81     0     0  0.14  0.76 0.542  0.11  0.13  0.08  0.02  0.00  0.00  0.00  0.00  0.00  0.00
 1982  20   106    96  -3.3 14.83  1.17 0.171  0.17 .0007 4.221   9.2 59.62 23.08     0     0  0.14  0.76 0.542  0.11  0.13  0.08  0.02  0.00  0.00  0.00  0.00  0.00  0.00
 1982  21   107    97  -5.0 14.83  1.17 0.171  0.17 .0007 4.221   9.2 59.62 23.36     0     0  0.14  0.76 0.542  0.11  0.13  0.08  0.02  0.00  0.00  0.00  0.00  0.00  0.00
 1982  22   108    98  -2.2 14.83  1.17 0.171  0.17 .0007 4.221   9.2 59.62 23.63     0     0  0.15  0.76 0.542  0.11  0.13  0.08  0.01  0.00  0.00  0.00  0.00  0.00  0.00
 1982  23   109    99 -10.9 14.83  1.17 0.171  0.17 .0007 4.221   9.2 59.64 23.90     0     0  0.15  0.76 0.542  0.11  0.13  0.08  0.01  0.00  0.00  0.00  0.00  0.00  0.00
 1982  24   110   100  -7.5 14.83  1.17 0.171  0.17 .0007 4.221   9.2 59.64 24.17     0     0  0.15  0.76 0.542  0.10  0.13  0.08  0.01  0.00  0.00  0.00  0.00  0.00  0.00
 1982  25   111   101  -1.1 14.83  1.17 0.171  0.17 .0007 4.221   9.2 59.64 24.43     0     0  0.15  0.76 0.542  0.10  0.13  0.08  0.01  0.00  0.00  0.00  0.00  0.00  0.00
 1982  26   112   102   1.4 14.84  1.17 0.171  0.17 .0007 4.221   9.2 59.64 24.70     0     0  0.15  0.76 0.543  0.10  0.12  0.08  0.01  0.00  0.00  0.00  0.00  0.00  0.00
 1982  27   113   103   8.1 14.93  1.18 0.172  0.17 .0009 4.256   9.2 59.64 24.96     0     0  0.15  0.76 0.550  0.10  0.12  0.08  0.01  0.00  0.00  0.00  0.00  0.00  0.00
 1982  28   114   104   0.0 14.93  1.18 0.172  0.17 .0009 4.457   9.2 59.64 25.22     0     0  0.15  0.76 0.550  0.10  0.12  0.08  0.01  0.00  0.00  0.00  0.00  0.00  0.00
 1982  29   115   105   5.2 14.98  1.18 0.172  0.17 .0009 4.457   9.2 59.64 25.47     0     0  0.16  0.76 0.554  0.10  0.12  0.08  0.01  0.00  0.00  0.00  0.00  0.00  0.00
 1982  30   116   106   0.0 14.98  1.18 0.172  0.17 .0009 4.591   9.2 59.64 25.73     0     0  0.16  0.76 0.554  0.10  0.12  0.08  0.01  0.00  0.00  0.00  0.00  0.00  0.00
 1982  31   117   107  -7.2 14.98  1.18 0.172  0.17 .0009 4.591   9.2 59.64 25.98     0     0  0.16  0.76 0.554  0.10  0.12  0.07  0.01  0.00  0.00  0.00  0.00  0.00  0.00
 1982  32   118   108  -1.9 14.98  1.18 0.172  0.17 .0009 4.591   9.2 59.64 26.23     0     0  0.16  0.76 0.554  0.10  0.12  0.07  0.01  0.00  0.00  0.00  0.00  0.00  0.00
 1982  33   119   109  -3.9 14.98  1.18 0.172  0.17 .0009 4.591   9.2 59.64 26.48     0     0  0.16  0.76 0.554  0.10  0.12  0.07  0.01  0.00  0.00  0.00  0.00  0.00  0.00
 1982  34   120   110 -13.0 14.98  1.18 0.172  0.17 .0007 4.591   9.2 60.17 26.73     0     0  0.14  0.76 0.554  0.10  0.12  0.07  0.01  0.00  0.00  0.00  0.00  0.00  0.00
 1982  35   121   111 -17.0 14.98  1.18 0.172  0.17 .0007 4.591   9.2 60.17 26.97     0     0  0.14  0.76 0.554  0.10  0.12  0.07  0.01  0.00  0.00  0.00  0.00  0.00  0.00
 1982  36   122   112 -15.5 14.98  1.18 0.172  0.17 .0007 4.591   9.2 60.17 27.22     0     0  0.14  0.76 0.554  0.09  0.12  0.07  0.01  0.00  0.00  0.00  0.00  0.00  0.00
 1982  37   123   113 -13.8 14.98  1.18 0.172  0.17 .0007 4.591   9.2 60.17 27.46     0     0  0.14  0.76 0.554  0.09  0.11  0.07  0.01  0.00  0.00  0.00  0.00  0.00  0.00
 1982  38   124   114  -6.4 14.98  1.18 0.172  0.17 .0007 4.591   9.2 60.17 27.70     0     0  0.14  0.76 0.554  0.09  0.11  0.07  0.01  0.00  0.00  0.00  0.00  0.00  0.00
 1982  39   125   115  -8.1 14.98  1.18 0.172  0.17 .0007 4.591   9.2 60.17 27.94     0     0  0.15  0.76 0.554  0.09  0.11  0.07  0.01  0.00  0.00  0.00  0.00  0.00  0.00
 1982  40   126   116 -14.4 14.98  1.18 0.172  0.17 .0007 4.591   9.2 60.17 28.17     0     0  0.15  0.76 0.554  0.09  0.11  0.07  0.01  0.00  0.00  0.00  0.00  0.00  0.00
 1982  41   127   117 -11.6 14.98  1.18 0.172  0.17 .0007 4.591   9.2 60.17 28.41     0     0  0.15  0.76 0.554  0.09  0.11  0.07  0.01  0.00  0.00  0.00  0.00  0.00  0.00
 1982  42   128   118  -8.9 14.98  1.18 0.172  0.17 .0007 4.591   9.2 60.17 28.64     0     0  0.15  0.76 0.554  0.09  0.11  0.07  0.01  0.00  0.00  0.00  0.00  0.00  0.00
 1982  43   129   119  -2.2 14.98  1.18 0.172  0.17 .0007 4.591   9.2 60.17 28.87     0     0  0.15  0.76 0.554  0.09  0.11  0.07  0.01  0.00  0.00  0.00  0.00  0.00  0.00
 1982  44   130   120  -4.1 14.98  1.18 0.172  0.17 .0007 4.591   9.2 60.17 29.10     0     0  0.15  0.76 0.554  0.09  0.11  0.07  0.01  0.00  0.00  0.00  0.00  0.00  0.00
 1982  45   131   121   2.8 15.01  1.19 0.172  0.17 .0009 4.591   9.2 60.17 29.32     0     0  0.15  0.76 0.556  0.09  0.11  0.07  0.01  0.00  0.00  0.00  0.00  0.00  0.00
 1982  46   132   122   4.7 15.06  1.19 0.172  0.17 .0009 4.673   9.2 60.17 29.55     0     0  0.16  0.76 0.560  0.09  0.11  0.07  0.01  0.00  0.00  0.00  0.00  0.00  0.00
 1982  47   133   123   3.6 15.10  1.20 0.172  0.17 .0010 4.812   9.2 60.17 29.77     0     0  0.16  0.76 0.563  0.09  0.11  0.07  0.01  0.00  0.00  0.00  0.00  0.00  0.00
 1982  48   134   124   2.5 15.13  1.20 0.172  0.17 .0010 4.920   9.2 60.17 29.99     0     0  0.16  0.76 0.565  0.09  0.10  0.07  0.01  0.00  0.00  0.00  0.00  0.00  0.00
 1982  49   135   125   7.0 15.20  1.21 0.172  0.17 .0012 4.995   9.2 60.17 30.21     0     0  0.16  0.76 0.571  0.09  0.10  0.06  0.01  0.00  0.00  0.00  0.00  0.00  0.00
 1982  50   136   126   8.9 15.29  1.22 0.172  0.17 .0015 5.206   9.2 60.17 30.43     0     0  0.17  0.76 0.578  0.08  0.10  0.06  0.01  0.00  0.00  0.00  0.00  0.00  0.00
 1982  51   137   127  11.1 15.41  1.23 0.173  0.17 .0020 5.479   9.2 60.17 30.64     0     0  0.18  0.76 0.587  0.08  0.10  0.06  0.01  0.00  0.00  0.00  0.00  0.00  0.00
 1982  52   138   128  10.0 15.52  1.25 0.174  0.17 .0027 5.823   9.2 60.17 30.86     0     0  0.19  0.76 0.595  0.08  0.10  0.06  0.01  0.00  0.00  0.00  0.00  0.00  0.00
 1982  53   139   129  12.2 15.65  1.26 0.174  0.17 .0035 6.135   9.2 60.17 31.07     0     0  0.21  0.76 0.606  0.08  0.10  0.06  0.01  0.00  0.00  0.00  0.00  0.00  0.00
 1982  54   140   130   9.4 15.75  1.27 0.175  0.17 .0036 6.521   9.2 60.17 31.28     0     0  0.21  0.76 0.613  0.08  0.10  0.06  0.01  0.00  0.00  0.00  0.00  0.00  0.00
 1982  55   141   131   3.3 15.78  1.28 0.175  0.17 .0044 6.821   9.2 60.17 31.49     0     0  0.22  0.76 0.616  0.08  0.10  0.06  0.01  0.00  0.00  0.00  0.00  0.00  0.00
 1982  56   142   132  -1.4 15.78  1.28 0.175  0.17 .0044 6.928   9.2 60.17 31.70     0     0  0.23  0.76 0.616  0.08  0.10  0.06  0.01  0.00  0.00  0.00  0.00  0.00  0.00
 1982  57   143   133  -2.0 15.78  1.28 0.175  0.17 .0044 6.928   9.2 60.17 31.91     0     0  0.23  0.76 0.616  0.08  0.10  0.06  0.01  0.00  0.00  0.00  0.00  0.00  0.00
 1982  58   144   134   1.7 15.80  1.28 0.176  0.17 .0048 6.928   9.2 60.17 32.12     0     0  0.24  0.76 0.617  0.08  0.10  0.06  0.01  0.00  0.00  0.00  0.00  0.00  0.00
 1982  59   145   135   4.7 21.00  1.29 0.177  0.17 .0059 6.983   9.2 60.17 32.32     0     0  0.26  0.76 0.621  0.08  0.10  0.06  0.01  0.00  0.00  0.00  0.00  0.00  0.00
 1982  60   146   136   8.4 21.07  1.30 0.179  0.17 .0078 7.138   9.2 60.17 32.53     0     0  0.29  0.76 0.628  0.08  0.10  0.06  0.01  0.00  0.00  0.00  0.00  0.00  0.00
 1982  61   147   137   8.7 21.15  1.31 0.179  0.17 .0085 7.418   9.2 60.17 32.73     0     0  0.31  0.76 0.635  0.08  0.10  0.06  0.01  0.00  0.00  0.00  0.00  0.00  0.00
 1982  62   148   138  -0.2 21.15  1.31 0.179  0.17 .0085 7.709   9.2 60.17 32.93     0     0  0.31  0.77 0.635  0.08  0.10  0.06  0.01  0.00  0.00  0.00  0.00  0.00  0.00
 1982  63   149   139  -3.7 21.15  1.31 0.179  0.17 .0085 7.709   9.2 60.17 33.13     0     0  0.31  0.77 0.635  0.08  0.09  0.06  0.01  0.00  0.00  0.00  0.00  0.00  0.00
 1982  64   150   140  -4.2 21.15  1.31 0.179  0.17 .0085 7.709   9.2 60.17 33.33     0     0  0.31  0.77 0.635  0.08  0.09  0.06  0.01  0.00  0.00  0.00  0.00  0.00  0.00
 1982  65   151   141  -3.0 21.15  1.31 0.179  0.17 .0085 7.709   9.2 60.17 33.53     0     0  0.32  0.77 0.635  0.08  0.09  0.06  0.01  0.00  0.00  0.00  0.00  0.00  0.00
 1982  66   152   142  -3.0 21.15  1.31 0.179  0.17 .0085 7.709   9.2 60.17 33.73     0     0  0.32  0.77 0.635  0.08  0.09  0.06  0.01  0.00  0.00  0.00  0.00  0.00  0.00
 1982  67   153   143   2.5 21.17  1.31 0.181  0.17 .0098 7.709   9.2 60.17 33.92     0     0  0.35  0.77 0.637  0.08  0.09  0.06  0.01  0.00  0.00  0.00  0.00  0.00  0.00
 1982  68   154   144   1.4 21.18  1.31 0.181  0.17 .0102 7.798   9.2 60.17 34.11     0     0  0.36  0.77 0.638  0.08  0.09  0.06  0.01  0.00  0.00  0.00  0.00  0.00  0.00
 1982  69   155   145  11.1 21.27  1.33 0.184  0.17 .0135 7.847   9.2 60.17 34.31     0     0  0.42  0.77 0.648  0.08  0.09  0.06  0.01  0.00  0.00  0.00  0.00  0.00  0.00
 1982  70   156   146  10.0 21.36  1.34 0.188  0.17 .0171 8.246   9.2 60.17 34.50     0     0  0.49  0.77 0.656  0.08  0.09  0.06  0.01  0.00  0.00  0.00  0.00  0.00  0.00
 1982  71   157   147  12.8 21.46  1.36 0.191  0.17 .0197 8.609   9.2 60.17 34.69     0     0  0.53  0.77 0.666  0.08  0.09  0.06  0.01  0.00  0.00  0.00  0.00  0.00  0.00
 1982  72   158   148   8.0 21.53  1.37 0.197  0.17 .0263 9.076   9.2 60.17 34.89     0     0  0.65  0.77 0.673  0.08  0.09  0.06  0.01  0.00  0.00  0.00  0.00  0.00  0.00
 1982  73   159   149   7.8 21.60  1.39 0.198  0.17 .0270 9.372   9.2 60.17 35.09     0     0  0.66  0.77 0.679  0.08  0.09  0.06  0.01  0.00  0.00  0.00  0.00  0.00  0.00
 1982  74   160   150  10.0 21.68  1.40 0.201  0.17 .0300 9.661   9.2 60.17 35.28     0     0  0.72  0.77 0.688  0.08  0.09  0.06  0.01  0.00  0.00  0.00  0.00  0.00  0.00
 1982  75   161   151  13.0 21.79  1.42 0.212  0.17 .0413 10.03   9.2 60.17 35.48     0     0  0.90  0.77 0.698  0.08  0.09  0.06  0.01  0.00  0.00  0.00  0.00  0.00  0.00
 1982  76   162   152  13.9 21.91  1.44 0.226  0.17 .0554 10.52   9.2 60.17 35.68     0     0  1.11  0.77 0.710  0.08  0.10  0.06  0.01  0.01  0.00  0.00  0.00  0.00  0.00
 1982  77   163   153   9.8 21.99  1.46 0.229  0.17 .0577 11.05   9.2 60.17 35.89     0     0  1.15  0.77 0.718  0.08  0.10  0.06  0.01  0.01  0.00  0.00  0.00  0.00  0.00
 1982  78   164   154  16.1 22.13  1.48 0.247  0.17 .0756 11.42   9.2 60.17 36.10     0     0  1.40  0.77 0.731  0.08  0.10  0.07  0.01  0.01  0.00  0.00  0.00  0.00  0.00
 1982  79   165   155   8.3 22.20  1.49 0.268  0.17 .0969 12.04   9.2 60.17 36.32     0     0  1.77  0.77 0.738  0.09  0.10  0.07  0.01  0.01  0.00  0.00  0.00  0.00  0.00
 1982  80   166   156   2.5 22.22  1.50 0.270  0.17 .0988 12.36   9.2 60.17 36.55     0     0  1.97  0.77 0.740  0.09  0.11  0.07  0.02  0.01  0.00  0.00  0.00  0.00  0.00
 1982  81   167   157   3.9 22.25  1.50 0.274  0.17 0.103 12.46   9.2 60.17 36.80     0     0  2.27  0.77 0.743  0.09  0.11  0.08  0.02  0.01  0.00  0.00  0.00  0.00  0.00
 1982  82   168   158   7.8 22.32  1.52 0.293  0.17 0.122 12.61   9.2 60.17 37.07     0     0  2.46  0.78 0.749  0.10  0.12  0.08  0.02  0.01  0.00  0.00  0.00  0.00  0.00
 1982  83   169   159   6.6 22.37  1.53 0.307  0.17 0.136 12.92   9.2 60.17 37.34     0     0  2.75  0.78 0.755  0.11  0.13  0.09  0.02  0.01  0.00  0.00  0.00  0.00  0.00
 1982  84   170   160   3.9 22.42  1.53 0.311  0.17 0.140 13.19   9.2 60.17 37.64     0     0  3.02  0.78 0.758  0.12  0.14  0.10  0.02  0.02  0.00  0.00  0.00  0.00  0.00
 1982  85   171   161   3.0 22.46  1.54 0.314  0.17 0.143 13.34   9.2 60.17 37.97     0     0  3.22  0.78 0.761  0.13  0.14  0.10  0.02  0.02  0.00  0.00  0.00  0.00  0.00
 1982  86   172   162   5.6 22.53  1.55 0.324  0.17 0.153 13.46   9.2 60.17 38.31     0     0  3.45  0.78 0.765  0.14  0.15  0.11  0.02  0.02  0.00  0.00  0.00  0.00  0.00
 1982  87   173   163   6.9 22.62  1.56 0.339  0.17 0.168 13.69   9.2 60.17 38.68     0     0  3.61  0.78 0.771  0.15  0.16  0.11  0.02  0.02  0.00  0.00  0.00  0.00  0.00
 1982  88   174   164  10.3 22.71  1.58 0.363  0.17 0.192 13.97   9.2 60.17 39.07     0     0  3.73  0.78 0.779  0.15  0.16  0.12  0.03  0.02  0.00  0.00  0.00  0.00  0.00
 1982  89   175   165  15.0 22.90  1.60 0.411  0.17 0.240 14.40   9.2 60.17 39.47     0     0  3.96  0.78 0.792  0.17  0.18  0.13  0.03  0.03  0.00  0.00  0.00  0.00  0.00
 1982  90   176   166  10.9 23.03  1.62 0.445  0.17 0.273 15.02   9.2 60.35 39.91     0     0  4.17  0.77 0.800  0.19  0.20  0.14  0.03  0.03  0.00  0.00  0.00  0.00  0.00
 1982  91   177   167  13.9 23.18  1.64 0.496  0.17 0.324 15.47   9.2 60.35 40.40     0     0  4.35  0.77 0.812  0.22  0.22  0.15  0.03  0.04  0.00  0.00  0.00  0.00  0.00
 1982  92   178   168  17.0 23.35  1.67 0.554  0.17 0.382 16.05   9.2 60.35 40.95     0     0  4.47  0.76 0.826  0.25  0.23  0.16  0.04  0.04  0.00  0.00  0.00  0.00  0.00
 1982  93   179   169   7.5 23.42  1.68 0.571  0.17 0.400 16.77   9.2 60.35 41.55     0     0  4.59  0.76 0.832  0.28  0.26  0.18  0.04  0.05  0.01  0.00  0.00  0.00  0.00
 1982  94   180   170   5.2 23.52  1.69 0.580  0.17 0.409 17.08   9.2 60.35 42.22     0     0  4.68  0.76 0.836  0.31  0.28  0.19  0.05  0.05  0.01  0.00  0.00  0.00  0.00
 1982  95   181   171   3.6 23.59  1.70 0.585  0.17 0.413 17.31   9.2 60.35 42.94     0     0  4.74  0.76 0.839  0.32  0.28  0.20  0.05  0.05  0.01  0.00  0.00  0.00  0.00
 1982  96   182   172  -0.8 23.59  1.70 0.585  0.17 0.413 17.46   9.2 60.35 43.68     0     0  4.78  0.77 0.839  0.32  0.28  0.19  0.05  0.05  0.01  0.00  0.00  0.00  0.00
 1982  97   183   173   3.0 23.66  1.70 0.588  0.17 0.416 17.46   9.2 60.35 44.42     0     0  4.83  0.77 0.842  0.32  0.28  0.20  0.05  0.05  0.01  0.00  0.00  0.00  0.00
 1982  98   184   174   4.4 23.75  1.71 0.595  0.17 0.423 17.59   9.2 60.35 45.16     0     0  4.90  0.77 0.845  0.34  0.29  0.20  0.05  0.05  0.01  0.00  0.00  0.00  0.00
 1982  99   185   175   4.1 23.84  1.72 0.601  0.17 0.429 17.79   9.2 60.35 45.93     0     0  5.00  0.77 0.849  0.38  0.32  0.22  0.05  0.06  0.01  0.00  0.00  0.00  0.00
 1982 100   186   176   8.7 24.02  1.73 0.628  0.17 0.456 17.97   9.2 60.35 46.78     0     0  5.09  0.77 0.856  0.42  0.35  0.23  0.06  0.07  0.01  0.00  0.00  0.00  0.00
 1982 101   187   177  13.6 24.32  1.76 0.685  0.17 0.514 18.35   9.2 60.35 47.70     0     0  5.19  0.77 0.867  0.47  0.38  0.25  0.07  0.08  0.01  0.00  0.00  0.00  0.00
 1982 102   188   178  20.2 24.75  1.79 0.768  0.17 0.596 18.95   9.2 60.35 48.72     0     0  5.27  0.77 0.884  0.52  0.42  0.27  0.07  0.08  0.01  0.00  0.00  0.00  0.00
 1982 103   189   179  16.1 25.06  1.82 0.829  0.17 0.656 19.86   9.2 60.63 49.83     0     0  5.32  0.77 0.897  0.58  0.46  0.29  0.08  0.09  0.02  0.00  0.00  0.00  0.00
 1982 104   190   180  21.1 25.46  1.86 0.907  0.17 0.733 20.58   9.2 61.00 51.05     0     0  5.37  0.77 0.914  0.64  0.49  0.31  0.09  0.10  0.02  0.00  0.00  0.00  0.00
 1982 105   191   181  24.2 26.03  1.91 0.973  0.18 0.796 21.54   9.2 61.43 52.37     0     0  5.41  0.76 0.934  0.69  0.52  0.33  0.09  0.11  0.02  0.00  0.00  0.00  0.00
 1982 106   192   182  18.4 26.31  1.94 1.026  0.18 0.848 22.63   9.2 61.75 53.76     0     0  5.45  0.76 0.949  0.70  0.53  0.33  0.09  0.11  0.02  0.00  0.00  0.00  0.00
 1982 107   193   183  10.0 26.54  1.96 1.066  0.18 0.883 23.47   9.2 62.87 55.19     0     0  5.48  0.76 0.957  0.78  0.58  0.35  0.10  0.12  0.02  0.00  0.00  0.00  0.00
 1982 108   194   184  12.2 26.81  1.98 1.115  0.19 0.926 23.93   9.2 64.24 56.74     0     0  5.51  0.76 0.968  0.86  0.62  0.37  0.11  0.13  0.03  0.00  0.00  0.00  0.00
 1982 109   195   185  15.3 27.15  2.01 1.176  0.20 0.979 24.49   9.2 65.95 58.41     0     0  5.53  0.77 0.980  0.93  0.66  0.40  0.12  0.14  0.03  0.00  0.00  0.00  0.00
 1982 110   196   186   6.7 27.15  2.03 1.195  0.20     1 25.28   9.2 66.47 60.20     0     0  5.57  0.77 0.986  1.01  0.71  0.42  0.12  0.15  0.03  0.00  0.00  0.00  0.00
 1982 111   197   187   7.0 27.15  2.06 1.216  0.20 1.014 25.86   9.2 67.00 62.11     0     0  5.60  0.77 0.991  1.09  0.75  0.44  0.13  0.16  0.03  0.00  0.00  0.00  0.00
 1982 112   198   188   8.6 27.15  2.09 1.249  0.20 1.045 26.47   9.2 67.67 64.14     0     0  5.65  0.77 0.998  1.18  0.80  0.46  0.14  0.17  0.04  0.00  0.00  0.00  0.00
 1982 113   199   189  11.7 27.15  2.13 1.302  0.21 1.093 27.22   9.2 68.58 66.31     0     0  5.69  0.77 1.008  1.26  0.84  0.48  0.15  0.17  0.04  0.00  0.00  0.00  0.00
 1982 114   200   190  16.4 27.15  2.19 1.374  0.21 1.160 28.25   9.2 69.85 68.59     0     0  5.73  0.77 1.021  1.33  0.87  0.50  0.15  0.18  0.04  0.00  0.00  0.00  0.00
 1982 115   201   191  13.1 27.15  2.23 1.431  0.22 1.212 29.69   9.2 70.86 70.98     0     0  5.77  0.78 1.032  1.37  0.89  0.51  0.16  0.18  0.04  0.01  0.00  0.00  0.00
 1982 116   202   192  14.1 30.44  2.28 1.492  0.23 1.264 30.83   9.2 74.08 73.42     0     0  5.79  0.78 1.044  1.47  0.94  0.54  0.16  0.19  0.04  0.01  0.00  0.00  0.00
 1982 117   203   193  10.6 30.94  2.32 1.533  0.24 1.297 32.07   9.2 76.53 76.00     0     0  5.82  0.78 1.052  1.49  0.95  0.54  0.16  0.19  0.04  0.01  0.00  0.00  0.00
 1982 118   204   194   8.4 31.33  2.35 1.543  0.24 1.302 33.00   9.2 78.50 78.61     0     0  5.86  0.78 1.059  1.48  0.95  0.54  0.16  0.19  0.04  0.01  0.00  0.00  0.00
 1982 119   205   195  10.0 31.79  2.38 1.584  0.25 1.336 33.74   9.2 80.86 81.21     0     0  5.89  0.78 1.068  1.50  0.95  0.54  0.16  0.19  0.04  0.01  0.00  0.00  0.00
 1982 120   206   196  13.9 32.44  2.43 1.642  0.26 1.384 34.61   9.2 84.19 83.82     0     0  5.92  0.79 1.079  1.51  0.98  0.55  0.17  0.20  0.05  0.01  0.00  0.00  0.00
 1982 121   207   197  16.1 33.20  2.49 1.713  0.27 1.444 35.83   9.2 88.15 86.49     0     0  5.96  0.79 1.092  1.52  1.03  0.56  0.17  0.20  0.05  0.01  0.00  0.00  0.00
 1982 122   208   198  18.0 34.04  2.55 1.797  0.28 1.515 37.25   9.2 92.67 89.22     0     0  6.01  0.80 1.107  1.55  1.07  0.58  0.18  0.21  0.05  0.01  0.00  0.00  0.00
 1982 123   209   199  22.0 35.07  2.63 1.890  0.30 1.592 38.83   9.2 98.31 92.06     0     0  6.06  0.81 1.125  1.58  1.12  0.61  0.18  0.21  0.05  0.01  0.00  0.00  0.00
 1982 124   210   200  24.5 36.21  2.72 1.973  0.32 1.657 40.76   9.2 104.8 95.01     0     0  6.13  0.81 1.145  1.62  1.18  0.65  0.19  0.22  0.06  0.01  0.00  0.00  0.00
 1982 125   211   201  18.0 37.06  2.78 2.016  0.33 1.686 42.90   9.2 109.6 98.11     0     0  6.17  0.82 1.160  1.62  1.18  0.65  0.20  0.23  0.06  0.01  0.00  0.00  0.00
 1982 126   212   202  10.9 37.57  2.82 2.066  0.34 1.728 44.49   9.2 112.5 101.2     0     0  6.25  0.82 1.169  1.65  1.21  0.67  0.20  0.23  0.06  0.02  0.00  0.00  0.00
 1982 127   213   203  14.4 38.24  2.87 2.134  0.35 1.785 45.44   9.2 116.5 104.4     0     0  6.36  0.82 1.181  1.70  1.27  0.71  0.21  0.24  0.06  0.02  0.00  0.00  0.00
 1982 128   214   204  20.5 39.20  2.94 2.229  0.36 1.865 46.71   9.2 122.1 107.8     0     0  6.48  0.83 1.198  1.76  1.33  0.76  0.23  0.26  0.07  0.02  0.00  0.00  0.00
 1982 129   215   205  22.5 40.29  3.03 2.322  0.38 1.940 48.51   9.2 128.3 111.3     0     0  6.59  0.83 1.216  1.81  1.38  0.80  0.24  0.27  0.07  0.03  0.00  0.00  0.00
 1982 130   216   206  22.5 41.47  3.15 2.322  0.41 1.908 50.72   9.2 128.3 115.0     0     0  6.70  0.84 1.235  1.84  1.41  0.82  0.24  0.27  0.07  0.03  0.00  0.00  0.00
 1982 131   217   207  22.0 42.63  3.26 2.322  0.45 1.876 53.68   9.2 128.3 118.8     0     0  6.85  0.85 1.253  1.88  1.46  0.86  0.25  0.28  0.08  0.03  0.00  0.00  0.00
 1982 132   218   208  18.9 43.62  3.36 2.322  0.47 1.850 56.57   9.2 128.3 122.7     0     0  6.94  0.86 1.268  1.89  1.47  0.87  0.26  0.28  0.08  0.03  0.00  0.00  0.00
 1982 133   219   209  20.0 44.68  3.47 2.322  0.50 1.822 59.06   9.2 128.3 126.7     0     0  7.06  0.87 1.285  1.90  1.49  0.88  0.26  0.29  0.08  0.03  0.00  0.00  0.00
 1982 134   220   210  17.8 45.61  3.56 2.322  0.52 1.797 61.69   9.2 128.3 130.7     0     0  7.18  0.87 1.299  1.92  1.50  0.89  0.26  0.29  0.08  0.03  0.00  0.00  0.00
 1982 135   221   211  17.8 46.54  3.65 2.322  0.55 1.773 64.02   9.2 128.3 134.7     0     0  7.41  0.88 1.314  1.96  1.55  0.92  0.27  0.30  0.08  0.04  0.00  0.00  0.00
 1982 136   222   212  19.5 47.57  3.76 2.322  0.58 1.746 66.36   9.2 128.3 138.9     0     0  7.54  0.88 1.330  1.97  1.56  0.93  0.27  0.30  0.08  0.04  0.00  0.00  0.00
 1982 137   223   213  19.5 48.59  3.86 2.322  0.60 1.720 68.92   9.2 128.3 143.1     0     0  7.71  0.89 1.346  1.98  1.58  0.95  0.28  0.31  0.08  0.04  0.00  0.00  0.00
 1982 138   224   214  20.3 49.66  3.97 2.322  0.63 1.693 71.48   9.2 128.3 147.4     0     0  7.95  0.89 1.362  2.01  1.61  0.97  0.29  0.31  0.09  0.04  0.00  0.00  0.00
 1982 139   225   215  23.6 53.43  4.09 2.322  0.66 1.662 74.15   9.2 128.3 151.8     0     0  8.17  0.90 1.382  2.04  1.64  0.99  0.29  0.32  0.09  0.04  0.00  0.00  0.00
 1982 140   226   216  21.1 57.65  4.19 2.322  0.68 1.639 77.14   9.2 128.3 156.3     0     0  8.36  0.92 1.399  2.04  1.65  1.00  0.29  0.32  0.09  0.04  0.00  0.00  0.00
 1982 141   227   217  18.0 63.14  4.28 2.322  0.70 1.619 79.78   9.2 128.3 160.8     0     0  8.64  0.93 1.414  2.05  1.66  1.01  0.30  0.32  0.09  0.04  0.00  0.00  0.00
 1982 142   228   218  16.1 70.19  4.36 2.322  0.72 1.602 82.04   9.2 128.3 165.3     0     0  8.91  0.95 1.427  2.05  1.66  1.01  0.30  0.32  0.09  0.05  0.00  0.00  0.00
 1982 143   229   219  18.0 71.58  4.45 2.322  0.74 1.582 84.05   9.2 128.3 169.8 12837 .0000  9.29  0.97 1.442  2.04  1.66  1.01  0.30  0.33  0.09  0.05  0.00  0.00  0.00
 1982 144   230   220  18.7 73.01  4.55 2.322  0.76 1.563 86.31   9.2 128.3 174.3 12837 .0001  9.50  0.98 1.457  2.03  1.65  1.00  0.29  0.32  0.09  0.05  0.00  0.00  0.00
 1982 145   231   221  20.0 74.55  4.65 2.322  0.78 1.542 88.64   9.2 128.3 178.8 12837 .0004  9.77  0.98 1.474  2.02  1.64  1.00  0.29  0.32  0.09  0.05  0.00  0.00  0.00
 1982 146   232   222  16.4 75.81  4.73 2.322  0.80 1.525 91.14   9.2 128.3 183.3 12837 .0007 10.23  0.98 1.487  2.01  1.63  1.00  0.29  0.32  0.09  0.05  0.00  0.00  0.00
 1982 147   233   223  18.4 77.22  4.82 2.322  0.82 1.506 93.19   9.2 128.3 187.8 12837 .0012 10.73  0.98 1.502  2.00  1.63  0.99  0.29  0.32  0.09  0.05  0.00  0.00  0.00
 1982 148   234   224  23.3 79.02  4.94 2.322  0.84 1.482 95.49   9.2 128.3 192.2 12837 .0020 11.03  0.98 1.522  1.99  1.62  0.99  0.29  0.32  0.09  0.05  0.00  0.00  0.00
 1982 149   235   225  21.4 80.17  5.02 2.322  0.86 1.460 98.40   9.2 128.3 196.7 12837 .0028 11.45  0.98 1.539  1.98  1.62  0.99  0.29  0.32  0.09  0.05  0.00  0.00  0.00
 1982 150   236   226  20.5 80.58  5.06 2.322  0.87 1.451 100.0   9.2 128.3 201.1 12837 .0037 11.79  0.98 1.556  1.97  1.61  0.98  0.29  0.32  0.09  0.05  0.00  0.00  0.00
 1982 151   237   227  17.8 80.94  5.09 2.322  0.88 1.443 100.0   9.2 128.3 205.5 12837 .0045 12.08  0.98 1.571  1.96  1.60  0.98  0.29  0.32  0.09  0.05  0.00  0.00  0.00
 1982 152   238   228  12.8 81.19  5.12 2.322  0.88 1.437 100.0   9.2 128.3 209.9 12837 .0050 12.59  0.98 1.581  1.95  1.60  0.98  0.29  0.32  0.09  0.05  0.00  0.00  0.00
 1982 153   239   229  15.2 81.50  5.15 2.322  0.89 1.431 100.0   9.2 128.3 214.2 12837 .0057 12.84  0.98 1.594  1.94  1.59  0.97  0.28  0.31  0.09  0.04  0.00  0.00  0.00
 1982 154   240   230  15.0 81.80  5.18 2.322  0.90 1.424 100.0   9.2 128.3 218.6 12837 .0063 13.04  0.98 1.606  1.93  1.58  0.97  0.28  0.31  0.09  0.04  0.00  0.00  0.00
 1982 155   241   231  17.0 82.14  5.21 2.322  0.90 1.417 100.0   9.2 128.3 222.9 12837 .0071 13.35  0.98 1.620  1.92  1.57  0.96  0.28  0.31  0.08  0.04  0.00  0.00  0.00
 1982 156   242   232  17.8 82.49  5.25 2.322  0.91 1.409 100.0   9.2 128.3 227.2 12837 .0079 13.75  0.98 1.635  1.91  1.56  0.96  0.28  0.31  0.08  0.04  0.00  0.00  0.00
 1982 157   243   233  25.5 83.00  5.30 2.322  0.92 1.399 100.0   9.2 128.3 231.5 12837 .0090 14.10  0.98 1.656  1.90  1.56  0.96  0.28  0.31  0.08  0.04  0.00  0.00  0.00
 1982 158   244   234  20.2 83.41  5.34 2.322  0.93 1.396 100.0   9.2 128.3 235.7 12837 .0099 14.53  0.98 1.672  1.89  1.55  0.95  0.28  0.31  0.08  0.04  0.01  0.00  0.00
 1982 159   245   235  25.8 83.93  5.39 2.322  0.98 1.345 100.0   9.2 128.3 240.0 12837 .0111 14.84  0.98 1.693  1.88  1.54  0.95  0.28  0.31  0.08  0.04  0.01  0.00  0.00
 1982 160   246   236  22.8 84.38  5.44 2.322  1.09 1.235 100.0   9.2 128.3 244.2 12837 .0121 15.18  0.98 1.712  1.87  1.54  0.94  0.28  0.30  0.08  0.04  0.01  0.00  0.00
 1982 161   247   237  16.4 84.71  5.47 2.322  1.25 1.072 100.0   9.2 128.3 248.4 12837 .0129 15.50  0.98 1.725  1.86  1.53  0.94  0.28  0.30  0.08  0.04  0.01  0.00  0.00
 1982 162   248   238  18.0 85.07  5.51 2.322  1.45 0.872 100.0   9.2 128.3 252.6 12837 .0137 15.69  0.98 1.740  1.85  1.52  0.93  0.27  0.30  0.08  0.04  0.01  0.00  0.00
 1982 163   249   239  19.8 85.46  5.55 2.322  1.95 0.371 100.0   9.2 128.3 256.8 12837 .0146 15.90  0.98 1.757  1.84  1.51  0.93  0.27  0.30  0.08  0.04  0.01  0.00  0.00
 1982 164   250   240  20.9 85.88  5.59 2.322  2.53     0 100.0   9.2 128.3 260.9 12837 .0155 16.05  0.98 1.774  1.82  1.50  0.92  0.27  0.30  0.08  0.04  0.01  0.00  0.00
 1982 165   251   241  23.9 86.36  5.64 2.322  2.53     0 100.0   9.2 128.3 265.0 12837 .0166 16.17  0.98 1.774  1.81  1.48  0.91  0.27  0.29  0.08  0.04  0.01  0.00  0.00
 1982 166   252   242  22.5 86.81  5.68 2.322  2.53     0 100.0   9.2 128.3 269.1 12837 .0176 16.31  0.98 1.774  1.79  1.47  0.91  0.27  0.29  0.08  0.04  0.00  0.00  0.00
 1982 167   253   243  18.6 87.18  5.72 2.322  2.53     0 100.0   9.2 128.3 273.1 12837 .0184 16.44  0.98 1.774  1.78  1.46  0.90  0.26  0.29  0.08  0.04  0.00  0.00  0.00
 1982 168   254   244  21.1 87.60  5.76 2.322  2.53     0 100.0   9.2 128.3 277.1 12837 .0192 16.57  0.98 1.774  1.76  1.45  0.89  0.26  0.29  0.08  0.04  0.00  0.00  0.00
 1982 169   255   245  21.1 88.02  5.80 2.322  2.53     0 100.0   9.2 128.3 281.1 12837 .0197 16.70  0.98 1.774  1.75  1.44  0.88  0.26  0.28  0.08  0.04  0.00  0.00  0.00
 1982 170   256   246  19.2 88.41  5.84 2.322  2.53     0 100.0   9.2 128.3 285.0 12837 .0199 16.84  0.98 1.774  1.74  1.43  0.88  0.26  0.28  0.08  0.04  0.00  0.00  0.00
 1982 171   257   247  22.8 88.86  5.89 2.322  2.53     0 100.0   9.2 128.3 288.9 12837 .0204 16.97  0.98 1.774  1.72  1.41  0.87  0.25  0.28  0.08  0.04  0.00  0.00  0.00
 1982 172   258   248  22.2 89.31  5.93 2.322  2.53     0 100.0   9.2 128.3 292.8 12837 .0208 17.11  0.98 1.774  1.71  1.40  0.86  0.25  0.28  0.08  0.04  0.00  0.00  0.00
 1982 173   259   249  20.8 89.72  5.97 2.322  2.53     0 100.0   9.2 128.3 296.6 12837 .0210 17.25  0.98 1.774  1.69  1.39  0.86  0.25  0.28  0.08  0.04  0.00  0.00  0.00
 1982 174   260   250  21.7 90.40  6.04 2.322  2.53     0 100.0   9.2 128.3 300.5 12837 .0215 17.39  0.98 1.774  1.68  1.38  0.85  0.25  0.27  0.07  0.04  0.00  0.00  0.00

*DSSAT Cropping System Model Ver. 4.5.1.023 -Stub         OCT 13, 2014; 10:45:28
                                                                                
*RUN   2        : DRYLAND  - 60 KG N/HA     CSCER045 KSAS8101    2              
 MODEL          : CSCER045 - Wheat                                              
 EXPERIMENT     : KSAS8101 WH                                                   
 DATA PATH      :                                                               
 TREATMENT  2   : DRYLAND  - 60 KG N/HA     CSCER045                            
  
@YEAR DOY   DAS   DAP TMEAN  GSTD  RSTD LAIPD LAISD  LAID  CHTD SDWAD SNW0D SNW1D  H#AD  HWUD SHRTD  PTFD  RDPD  RL1D  RL2D  RL3D  RL4D  RL5D  RL6D  RL7D  RL8D  RL9D RL10D
 1981 289    10     0  12.8     0  1.03     0  0.00     0     0  46.0     0     0     0     0  0.00  0.00 0.055  0.00  0.00  0.00  0.00  0.00  0.00  0.00  0.00  0.00  0.00
 1981 290    11     1  16.1 5.580  1.03     0  0.00     0     0  46.0     0     0     0     0  0.00  0.00 0.055  0.00  0.00  0.00  0.00  0.00  0.00  0.00  0.00  0.00  0.00
 1981 291    12     2   9.4 6.540  1.03     0  0.00     0     0  45.3     0     0     0     0  0.00  0.00 0.069  0.01  0.00  0.00  0.00  0.00  0.00  0.00  0.00  0.00  0.00
 1981 292    13     3  12.2 7.812  1.03     0  0.00     0     0  44.4     0 .0058     0     0  0.00  0.00 0.087  0.02  0.01  0.00  0.00  0.00  0.00  0.00  0.00  0.00  0.00
 1981 293    14     4  17.5 9.688  1.03     0  0.00     0     0  43.0     0 .0190     0     0  0.00  0.00 0.114  0.03  0.01  0.00  0.00  0.00  0.00  0.00  0.00  0.00  0.00
 1981 294    15     5  11.7 10.00  1.03     0  0.00     0     0  42.1     0 .0428     0     0  0.00  0.00 0.131  0.04  0.02  0.00  0.00  0.00  0.00  0.00  0.00  0.00  0.00
 1981 295    16     6   6.2 10.08  1.03 .0016  0.00 .0016 0.500  41.0     0 .0736     0     0  0.14  0.75 0.141  0.05  0.02  0.00  0.00  0.00  0.00  0.00  0.00  0.00  0.00
 1981 296    17     7   1.9 10.11  1.03 .0018  0.00 .0018 0.860  40.9     0 0.108     0     0  0.17  0.75 0.143  0.05  0.02  0.00  0.00  0.00  0.00  0.00  0.00  0.00  0.00
 1981 297    18     8   6.1 10.19  1.04 .0033  0.00 .0033 0.864  39.8     0 0.143     0     0  0.29  0.75 0.153  0.05  0.02  0.00  0.00  0.00  0.00  0.00  0.00  0.00  0.00
 1981 298    19     9   8.4 10.30  1.04 .0063  0.00 .0063 0.878  38.2     0 0.182     0     0  0.50  0.75 0.163  0.05  0.03  0.00  0.00  0.00  0.00  0.00  0.00  0.00  0.00
 1981 299    20    10   7.8 10.40  1.04 .0089  0.00 .0089 0.903  36.9     0 0.224     0     0  0.75  0.75 0.173  0.06  0.03  0.00  0.00  0.00  0.00  0.00  0.00  0.00  0.00
 1981 300    21    11  13.7 10.58  1.04 .0147  0.00 .0147 0.931  34.0     0 0.271     0     0  1.14  0.75 0.190  0.06  0.03  0.00  0.00  0.00  0.00  0.00  0.00  0.00  0.00
 1981 301    22    12  16.2 10.79  1.04 .0215  0.00 .0215 0.987  30.7     0 0.324     0     0  1.53  0.75 0.210  0.07  0.04  0.00  0.00  0.00  0.00  0.00  0.00  0.00  0.00
 1981 302    23    13  17.5 11.02  1.05 .0291  0.00 .0291 1.054  27.2     0 0.384     0     0  1.93  0.75 0.232  0.07  0.04  0.00  0.00  0.00  0.00  0.00  0.00  0.00  0.00
 1981 303    24    14  16.1 11.23  1.05 .0370  0.00 .0370 1.127  23.3     0 0.454     0     0  2.13  0.75 0.252  0.08  0.05  0.00  0.00  0.00  0.00  0.00  0.00  0.00  0.00
 1981 304    25    15  13.9 11.42  1.05 .0438  0.00 .0438 1.193  19.9     0 0.531     0     0  2.27  0.75 0.270  0.08  0.05  0.01  0.00  0.00  0.00  0.00  0.00  0.00  0.00
 1981 305    26    16  12.2 11.58  1.05 .0498  0.00 .0498 1.250  17.0     0 0.614     0     0  2.43  0.75 0.285  0.09  0.05  0.01  0.00  0.00  0.00  0.00  0.00  0.00  0.00
 1981 306    27    17  10.2 11.71  1.05 .0548  0.00 .0548 1.300  14.7     0 0.703     0     0  2.58  0.75 0.298  0.09  0.06  0.01  0.00  0.00  0.00  0.00  0.00  0.00  0.00
 1981 307    28    18  11.4 11.86  1.06 .0604  0.00 .0604 1.344  13.0     0 0.797     0     0  2.81  0.75 0.312  0.09  0.06  0.01  0.00  0.00  0.00  0.00  0.00  0.00  0.00
 1981 308    29    19  10.2 12.00  1.06 .0654  0.00 .0654 1.397  11.9     0 0.895     0     0  2.96  0.75 0.321  0.09  0.06  0.01  0.00  0.00  0.00  0.00  0.00  0.00  0.00
 1981 309    30    20  10.6 12.11  1.06 .0702  0.00 .0702 1.447  11.2     0     1     0     0  3.23  0.75 0.329  0.09  0.07  0.01  0.00  0.00  0.00  0.00  0.00  0.00  0.00
 1981 310    31    21   6.7 12.18  1.06 .0722  0.00 .0722 1.502  10.9     0 1.108     0     0  3.46  0.75 0.335  0.09  0.08  0.02  0.00  0.00  0.00  0.00  0.00  0.00  0.00
 1981 311    32    22   9.7 12.28  1.06 .0765  0.00 .0765 1.539  10.5     0 1.230     0     0  3.62  0.75 0.343  0.09  0.08  0.02  0.00  0.00  0.00  0.00  0.00  0.00  0.00
 1981 312    33    23  10.9 12.40  1.07 .0792  0.00 .0792 1.597   9.8     0 1.360     0     0  3.61  0.75 0.352  0.09  0.08  0.02  0.00  0.00  0.00  0.00  0.00  0.00  0.00
 1981 313    34    24   2.5 12.42  1.07 .0794  0.00 .0794 1.667   9.8     0 1.493     0     0  3.71  0.75 0.354  0.09  0.08  0.02  0.00  0.00  0.00  0.00  0.00  0.00  0.00
 1981 314    35    25   5.6 12.48  1.07 .0808  0.00 .0808 1.683   9.7     0 1.631     0     0  3.86  0.75 0.358  0.10  0.09  0.03  0.00  0.00  0.00  0.00  0.00  0.00  0.00
 1981 315    36    26   7.5 12.56  1.07 .0834  0.00 .0834 1.723   9.6     0 1.781     0     0  3.99  0.75 0.365  0.10  0.09  0.03  0.00  0.00  0.00  0.00  0.00  0.00  0.00
 1981 316    37    27  10.9 12.67  1.07 .0883  0.00 .0883 1.780   9.5     0 1.941     0     0  4.10  0.75 0.374  0.10  0.10  0.04  0.00  0.00  0.00  0.00  0.00  0.00  0.00
 1981 317    38    28  10.6 12.78  1.08 .0930  0.00 .0930 1.869   9.4     0 2.113     0     0  4.20  0.75 0.382  0.10  0.10  0.04  0.00  0.00  0.00  0.00  0.00  0.00  0.00
 1981 318    39    29  13.0 12.92  1.08 .0989  0.00 .0989 1.957   9.3     0 2.295     0     0  4.29  0.75 0.393  0.11  0.11  0.05  0.00  0.00  0.00  0.00  0.00  0.00  0.00
 1981 319    40    30  15.0 13.08  1.09 0.106  0.00 0.106 2.069   9.3     0 2.486     0     0  4.37  0.75 0.405  0.11  0.11  0.05  0.00  0.00  0.00  0.00  0.00  0.00  0.00
 1981 320    41    31  17.5 13.26  1.09 0.115  0.00 0.115 2.199   9.3     0 2.687     0     0  4.45  0.75 0.420  0.12  0.12  0.05  0.00  0.00  0.00  0.00  0.00  0.00  0.00
 1981 321    42    32  12.8 13.40  1.10 0.122  0.00 0.122 2.350   9.2     0 2.901     0     0  4.53  0.75 0.430  0.12  0.12  0.06  0.00  0.00  0.00  0.00  0.00  0.00  0.00
 1981 322    43    33  14.1 13.55  1.10 0.129  0.00 0.129 2.459   9.2     0 3.129     0     0  4.60  0.75 0.442  0.13  0.13  0.06  0.01  0.00  0.00  0.00  0.00  0.00  0.00
 1981 323    44    34   4.1 13.59  1.10 0.130  0.00 0.130 2.581   9.2     0 3.365     0     0  4.64  0.76 0.445  0.13  0.13  0.06  0.01  0.00  0.00  0.00  0.00  0.00  0.00
 1981 324    45    35   0.0 13.59  1.10 0.130  0.00 0.130 2.616   9.2     0 3.603     0     0  4.68  0.76 0.445  0.13  0.12  0.06  0.01  0.00  0.00  0.00  0.00  0.00  0.00
 1981 325    46    36   2.5 13.62  1.11 0.130  0.00 0.130 2.616   9.2     0 3.839     0     0  4.73  0.76 0.447  0.13  0.13  0.06  0.01  0.00  0.00  0.00  0.00  0.00  0.00
 1981 326    47    37   7.0 13.69  1.11 0.133  0.00 0.133 2.640   9.2     0 4.082     0     0  4.79  0.76 0.453  0.13  0.13  0.07  0.01  0.00  0.00  0.00  0.00  0.00  0.00
 1981 327    48    38  10.6 13.80  1.11 0.138  0.00 0.138 2.709   9.2     0 4.334     0     0  4.84  0.76 0.462  0.14  0.14  0.07  0.01  0.00  0.00  0.00  0.00  0.00  0.00
 1981 328    49    39   6.4 13.87  1.12 0.141  0.00 0.141 2.819   9.2     0 4.600     0     0  4.90  0.76 0.467  0.15  0.14  0.08  0.01  0.00  0.00  0.00  0.00  0.00  0.00
 1981 329    50    40  12.2 14.00  1.12 0.147  0.00 0.147 2.888   9.2     0 4.878     0     0  4.95  0.76 0.477  0.15  0.15  0.08  0.01  0.00  0.00  0.00  0.00  0.00  0.00
 1981 330    51    41   6.7 14.07  1.12 0.149  0.00 0.149 3.023   9.2     0 5.169     0     0  4.99  0.76 0.482  0.16  0.15  0.08  0.01  0.00  0.00  0.00  0.00  0.00  0.00
 1981 331    52    42  -0.8 14.07  1.12 0.149  0.00 0.149 3.097   9.2     0 5.469     0     0  5.03  0.76 0.482  0.16  0.15  0.08  0.01  0.00  0.00  0.00  0.00  0.00  0.00
 1981 332    53    43   2.5 14.09  1.13 0.150  0.00 0.149 3.097   9.2 0.144 5.767     0     0  5.07  0.76 0.484  0.16  0.15  0.08  0.01  0.00  0.00  0.00  0.00  0.00  0.00
 1981 333    54    44   3.0 14.13  1.13 0.150  0.00 0.149 3.127   9.2 0.319 6.068     0     0  5.11  0.76 0.487  0.16  0.15  0.08  0.01  0.00  0.00  0.00  0.00  0.00  0.00
 1981 334    55    45   5.9 14.19  1.13 0.152  0.00 0.149 3.165   9.2 0.655 6.371     0     0  5.14  0.76 0.492  0.16  0.15  0.08  0.01  0.00  0.00  0.00  0.00  0.00  0.00
 1981 335    56    46   2.2 14.21  1.13 0.153  0.00 0.149 3.240   9.2 0.781 6.674     0     0  5.18  0.76 0.493  0.16  0.15  0.08  0.01  0.00  0.00  0.00  0.00  0.00  0.00
 1981 336    57    47   3.6 14.25  1.13 0.154  0.01 0.148 3.269   9.2 0.988 6.976     0     0  5.22  0.76 0.496  0.16  0.15  0.09  0.01  0.00  0.00  0.00  0.00  0.00  0.00
 1981 337    58    48   4.5 14.30  1.14 0.155  0.01 0.148 3.318   9.2 1.244 7.287     0     0  5.25  0.76 0.500  0.16  0.16  0.09  0.01  0.00  0.00  0.00  0.00  0.00  0.00
 1981 338    59    49   3.9 14.34  1.14 0.156  0.01 0.148 3.380   9.2 1.468 7.612     0     0  5.28  0.76 0.503  0.16  0.16  0.10  0.01  0.00  0.00  0.00  0.00  0.00  0.00
 1981 339    60    50   3.9 14.38  1.14 0.157  0.01 0.148 3.436   9.2 1.693 7.948     0     0  5.31  0.76 0.507  0.16  0.16  0.10  0.01  0.00  0.00  0.00  0.00  0.00  0.00
 1981 340    61    51   8.9 14.47  1.15 0.161  0.01 0.150 3.494   9.2 2.205 8.287     0     0  5.34  0.76 0.514  0.16  0.17  0.10  0.01  0.00  0.00  0.00  0.00  0.00  0.00
 1981 341    62    52  11.7 14.59  1.15 0.168  0.01 0.153 3.630   9.2 2.879 8.637     0     0  5.36  0.76 0.523  0.16  0.17  0.11  0.02  0.00  0.00  0.00  0.00  0.00  0.00
 1981 342    63    53   3.7 14.63  1.15 0.169  0.02 0.153 3.812   9.2 3.090 9.000     0     0  5.39  0.76 0.526  0.16  0.18  0.11  0.02  0.00  0.00  0.00  0.00  0.00  0.00
 1981 343    64    54   2.2 14.66  1.16 0.169  0.02 0.153 3.869   9.2 3.220 9.372     0     0  5.43  0.76 0.528  0.16  0.18  0.11  0.02  0.00  0.00  0.00  0.00  0.00  0.00
 1981 344    65    55  -0.3 14.66  1.16 0.169  0.02 0.153 3.905   9.2 3.220 9.748     0     0  5.47  0.76 0.528  0.16  0.18  0.11  0.02  0.00  0.00  0.00  0.00  0.00  0.00
 1981 345    66    56   2.5 14.68  1.16 0.170  0.02 0.152 3.905   9.2 3.365 10.12     0     0  5.51  0.76 0.530  0.16  0.18  0.11  0.02  0.00  0.00  0.00  0.00  0.00  0.00
 1981 346    67    57   2.8 14.71  1.16 0.170  0.02 0.152 3.948   9.2 3.526 10.49     0     0  5.55  0.76 0.533  0.16  0.18  0.11  0.02  0.00  0.00  0.00  0.00  0.00  0.00
 1981 347    68    58   2.5 14.74  1.16 0.171  0.02 0.152 3.996   9.2 3.671 10.86     0     0  5.59  0.76 0.535  0.16  0.18  0.11  0.02  0.00  0.00  0.00  0.00  0.00  0.00
 1981 348    69    59   0.5 14.74  1.16 0.171  0.02 0.151 4.040   9.2 3.703 11.23     0     0  5.63  0.76 0.535  0.16  0.17  0.11  0.02  0.00  0.00  0.00  0.00  0.00  0.00
 1981 349    70    60   0.0 14.74  1.16 0.171  0.02 0.151 4.050   9.2 3.703 11.60     0     0  5.68  0.76 0.535  0.16  0.17  0.11  0.02  0.00  0.00  0.00  0.00  0.00  0.00
 1981 350    71    61  -4.7 14.74  1.16 0.171  0.02 0.151 4.050   9.2 3.703 11.97     0     0  5.73  0.76 0.535  0.16  0.17  0.11  0.02  0.00  0.00  0.00  0.00  0.00  0.00
 1981 351    72    62 -12.5 14.74  1.16 0.171  0.09 .0757 4.050   9.2 33.13 12.33     0     0  2.89  0.76 0.535  0.16  0.17  0.11  0.02  0.00  0.00  0.00  0.00  0.00  0.00
 1981 352    73    63 -13.6 14.74  1.16 0.171  0.15 .0212 4.050   9.2 47.84 12.69     0     0  0.97  0.76 0.535  0.16  0.17  0.11  0.02  0.00  0.00  0.00  0.00  0.00  0.00
 1981 353    74    64 -11.4 14.74  1.16 0.171  0.16 .0153 4.050   9.2 51.96 13.04     0     0  0.71  0.76 0.535  0.15  0.17  0.11  0.02  0.00  0.00  0.00  0.00  0.00  0.00
 1981 354    75    65  -4.2 14.74  1.16 0.171  0.16 .0153 4.050   9.2 51.96 13.40     0     0  0.72  0.76 0.535  0.15  0.17  0.11  0.02  0.00  0.00  0.00  0.00  0.00  0.00
 1981 355    76    66   2.0 14.76  1.16 0.171  0.16 .0155 4.050   9.2 51.96 13.75     0     0  0.73  0.76 0.537  0.15  0.17  0.10  0.02  0.00  0.00  0.00  0.00  0.00  0.00
 1981 356    77    67   1.7 14.78  1.17 0.171  0.16 .0157 4.091   9.2 51.96 14.09     0     0  0.73  0.76 0.538  0.15  0.16  0.10  0.02  0.00  0.00  0.00  0.00  0.00  0.00
 1981 357    78    68  -1.1 14.78  1.17 0.171  0.16 .0157 4.126   9.2 51.96 14.44     0     0  0.74  0.76 0.538  0.15  0.16  0.10  0.02  0.00  0.00  0.00  0.00  0.00  0.00
 1981 358    79    69  -0.3 14.78  1.17 0.171  0.16 .0157 4.126   9.2 51.96 14.78     0     0  0.75  0.76 0.538  0.15  0.16  0.10  0.02  0.00  0.00  0.00  0.00  0.00  0.00
 1981 359    80    70   1.6 14.80  1.17 0.171  0.16 .0158 4.126   9.2 51.96 15.12     0     0  0.76  0.76 0.540  0.15  0.16  0.10  0.01  0.00  0.00  0.00  0.00  0.00  0.00
 1981 360    81    71  -1.7 14.80  1.17 0.171  0.16 .0158 4.161   9.2 51.96 15.46     0     0  0.76  0.76 0.540  0.15  0.16  0.10  0.01  0.00  0.00  0.00  0.00  0.00  0.00
 1981 361    82    72  -3.1 14.80  1.17 0.171  0.16 .0158 4.161   9.2 51.96 15.79     0     0  0.77  0.76 0.540  0.14  0.16  0.10  0.01  0.00  0.00  0.00  0.00  0.00  0.00
 1981 362    83    73  -4.4 14.80  1.17 0.171  0.16 .0158 4.161   9.2 51.96 16.13     0     0  0.78  0.76 0.540  0.14  0.16  0.10  0.01  0.00  0.00  0.00  0.00  0.00  0.00
 1981 363    84    74  -3.6 14.80  1.17 0.171  0.16 .0158 4.161   9.2 51.96 16.46     0     0  0.78  0.76 0.540  0.14  0.15  0.10  0.01  0.00  0.00  0.00  0.00  0.00  0.00
 1981 364    85    75   1.7 14.82  1.17 0.171  0.16 .0160 4.161   9.2 51.96 16.78     0     0  0.79  0.76 0.541  0.14  0.15  0.10  0.01  0.00  0.00  0.00  0.00  0.00  0.00
 1981 365    86    76   0.0 14.82  1.17 0.171  0.16 .0160 4.196   9.2 51.96 17.11     0     0  0.80  0.76 0.541  0.14  0.15  0.10  0.01  0.00  0.00  0.00  0.00  0.00  0.00
 1982   1    87    77  -6.1 14.82  1.17 0.171  0.16 .0160 4.196   9.2 51.96 17.43     0     0  0.81  0.76 0.541  0.14  0.15  0.10  0.01  0.00  0.00  0.00  0.00  0.00  0.00
 1982   2    88    78   0.8 14.83  1.17 0.171  0.16 .0161 4.196   9.2 51.96 17.75     0     0  0.81  0.76 0.542  0.14  0.15  0.10  0.01  0.00  0.00  0.00  0.00  0.00  0.00
 1982   3    89    79  -6.3 14.83  1.17 0.171  0.16 .0161 4.214   9.2 51.96 18.07     0     0  0.82  0.76 0.542  0.14  0.15  0.09  0.01  0.00  0.00  0.00  0.00  0.00  0.00
 1982   4    90    80  -6.1 14.83  1.17 0.171  0.16 .0161 4.214   9.2 51.96 18.38     0     0  0.83  0.76 0.542  0.14  0.15  0.09  0.01  0.00  0.00  0.00  0.00  0.00  0.00
 1982   5    91    81  -1.6 14.83  1.17 0.171  0.16 .0161 4.214   9.2 51.96 18.69     0     0  0.83  0.76 0.542  0.13  0.15  0.09  0.01  0.00  0.00  0.00  0.00  0.00  0.00
 1982   6    92    82 -10.9 14.83  1.17 0.171  0.16 .0134 4.214   9.2 53.82 19.00     0     0  0.70  0.76 0.542  0.13  0.15  0.09  0.01  0.00  0.00  0.00  0.00  0.00  0.00
 1982   7    93    83 -11.4 14.83  1.17 0.171  0.16 .0096 4.214   9.2 56.35 19.31     0     0  0.52  0.76 0.542  0.13  0.14  0.09  0.01  0.00  0.00  0.00  0.00  0.00  0.00
 1982   8    94    84  -2.8 14.83  1.17 0.171  0.16 .0096 4.214   9.2 56.35 19.61     0     0  0.52  0.76 0.542  0.13  0.14  0.09  0.01  0.00  0.00  0.00  0.00  0.00  0.00
 1982   9    95    85  -8.4 14.83  1.17 0.171  0.16 .0096 4.214   9.2 56.35 19.91     0     0  0.52  0.76 0.542  0.13  0.14  0.09  0.01  0.00  0.00  0.00  0.00  0.00  0.00
 1982  10    96    86 -18.6 14.83  1.17 0.171  0.17 .0007 4.214   9.2 59.62 20.21     0     0  0.13  0.76 0.542  0.13  0.14  0.09  0.01  0.00  0.00  0.00  0.00  0.00  0.00
 1982  11    97    87 -13.4 14.83  1.17 0.171  0.17 .0007 4.214   9.2 59.62 20.51     0     0  0.13  0.76 0.542  0.13  0.14  0.09  0.01  0.00  0.00  0.00  0.00  0.00  0.00
 1982  12    98    88  -9.1 14.83  1.17 0.171  0.17 .0007 4.214   9.2 59.62 20.81     0     0  0.13  0.76 0.542  0.13  0.14  0.09  0.01  0.00  0.00  0.00  0.00  0.00  0.00
 1982  13    99    89 -14.5 14.83  1.17 0.171  0.17 .0007 4.214   9.2 59.62 21.10     0     0  0.14  0.76 0.542  0.13  0.14  0.09  0.01  0.00  0.00  0.00  0.00  0.00  0.00
 1982  14   100    90  -3.0 14.83  1.17 0.171  0.17 .0007 4.214   9.2 59.62 21.39     0     0  0.14  0.76 0.542  0.13  0.14  0.09  0.01  0.00  0.00  0.00  0.00  0.00  0.00
 1982  15   101    91  -1.4 14.83  1.17 0.171  0.17 .0007 4.214   9.2 59.62 21.68     0     0  0.14  0.76 0.542  0.12  0.14  0.09  0.01  0.00  0.00  0.00  0.00  0.00  0.00
 1982  16   102    92 -14.1 14.83  1.17 0.171  0.17 .0007 4.214   9.2 59.62 21.96     0     0  0.14  0.76 0.542  0.12  0.13  0.09  0.01  0.00  0.00  0.00  0.00  0.00  0.00
 1982  17   103    93  -8.7 14.83  1.17 0.171  0.17 .0007 4.214   9.2 59.62 22.25     0     0  0.14  0.76 0.542  0.12  0.13  0.08  0.01  0.00  0.00  0.00  0.00  0.00  0.00
 1982  18   104    94   0.3 14.83  1.17 0.171  0.17 .0007 4.214   9.2 59.62 22.53     0     0  0.14  0.76 0.542  0.12  0.13  0.08  0.01  0.00  0.00  0.00  0.00  0.00  0.00
 1982  19   105    95  -0.6 14.83  1.17 0.171  0.17 .0007 4.221   9.2 59.62 22.81     0     0  0.14  0.76 0.542  0.12  0.13  0.08  0.01  0.00  0.00  0.00  0.00  0.00  0.00
 1982  20   106    96  -3.3 14.83  1.17 0.171  0.17 .0007 4.221   9.2 59.62 23.08     0     0  0.14  0.76 0.542  0.12  0.13  0.08  0.01  0.00  0.00  0.00  0.00  0.00  0.00
 1982  21   107    97  -5.0 14.83  1.17 0.171  0.17 .0007 4.221   9.2 59.62 23.36     0     0  0.14  0.76 0.542  0.12  0.13  0.08  0.01  0.00  0.00  0.00  0.00  0.00  0.00
 1982  22   108    98  -2.2 14.83  1.17 0.171  0.17 .0007 4.221   9.2 59.62 23.63     0     0  0.15  0.76 0.542  0.12  0.13  0.08  0.01  0.00  0.00  0.00  0.00  0.00  0.00
 1982  23   109    99 -10.9 14.83  1.17 0.171  0.17 .0007 4.221   9.2 59.64 23.90     0     0  0.15  0.76 0.542  0.12  0.13  0.08  0.01  0.00  0.00  0.00  0.00  0.00  0.00
 1982  24   110   100  -7.5 14.83  1.17 0.171  0.17 .0007 4.221   9.2 59.64 24.17     0     0  0.15  0.76 0.542  0.12  0.13  0.08  0.01  0.00  0.00  0.00  0.00  0.00  0.00
 1982  25   111   101  -1.1 14.83  1.17 0.171  0.17 .0007 4.221   9.2 59.64 24.43     0     0  0.15  0.76 0.542  0.11  0.12  0.08  0.01  0.00  0.00  0.00  0.00  0.00  0.00
 1982  26   112   102   1.4 14.84  1.17 0.171  0.17 .0007 4.221   9.2 59.64 24.70     0     0  0.15  0.76 0.543  0.11  0.12  0.08  0.01  0.00  0.00  0.00  0.00  0.00  0.00
 1982  27   113   103   8.1 14.93  1.18 0.172  0.17 .0009 4.256   9.2 59.64 24.96     0     0  0.15  0.76 0.550  0.11  0.12  0.08  0.01  0.00  0.00  0.00  0.00  0.00  0.00
 1982  28   114   104   0.0 14.93  1.18 0.172  0.17 .0009 4.457   9.2 59.64 25.22     0     0  0.15  0.76 0.550  0.11  0.12  0.08  0.01  0.00  0.00  0.00  0.00  0.00  0.00
 1982  29   115   105   5.2 14.98  1.18 0.172  0.17 .0009 4.457   9.2 59.64 25.47     0     0  0.16  0.76 0.554  0.11  0.12  0.08  0.01  0.00  0.00  0.00  0.00  0.00  0.00
 1982  30   116   106   0.0 14.98  1.18 0.172  0.17 .0009 4.591   9.2 59.64 25.73     0     0  0.16  0.76 0.554  0.11  0.12  0.08  0.01  0.00  0.00  0.00  0.00  0.00  0.00
 1982  31   117   107  -7.2 14.98  1.18 0.172  0.17 .0009 4.591   9.2 59.64 25.98     0     0  0.16  0.76 0.554  0.11  0.12  0.08  0.01  0.00  0.00  0.00  0.00  0.00  0.00
 1982  32   118   108  -1.9 14.98  1.18 0.172  0.17 .0009 4.591   9.2 59.64 26.23     0     0  0.16  0.76 0.554  0.11  0.12  0.08  0.01  0.00  0.00  0.00  0.00  0.00  0.00
 1982  33   119   109  -3.9 14.98  1.18 0.172  0.17 .0009 4.591   9.2 59.64 26.48     0     0  0.16  0.76 0.554  0.11  0.12  0.07  0.01  0.00  0.00  0.00  0.00  0.00  0.00
 1982  34   120   110 -13.0 14.98  1.18 0.172  0.17 .0007 4.591   9.2 60.17 26.73     0     0  0.14  0.76 0.554  0.11  0.12  0.07  0.01  0.00  0.00  0.00  0.00  0.00  0.00
 1982  35   121   111 -17.0 14.98  1.18 0.172  0.17 .0007 4.591   9.2 60.17 26.97     0     0  0.14  0.76 0.554  0.11  0.12  0.07  0.01  0.00  0.00  0.00  0.00  0.00  0.00
 1982  36   122   112 -15.5 14.98  1.18 0.172  0.17 .0007 4.591   9.2 60.17 27.22     0     0  0.14  0.76 0.554  0.11  0.11  0.07  0.01  0.00  0.00  0.00  0.00  0.00  0.00
 1982  37   123   113 -13.8 14.98  1.18 0.172  0.17 .0007 4.591   9.2 60.17 27.46     0     0  0.14  0.76 0.554  0.10  0.11  0.07  0.01  0.00  0.00  0.00  0.00  0.00  0.00
 1982  38   124   114  -6.4 14.98  1.18 0.172  0.17 .0007 4.591   9.2 60.17 27.70     0     0  0.14  0.76 0.554  0.10  0.11  0.07  0.01  0.00  0.00  0.00  0.00  0.00  0.00
 1982  39   125   115  -8.1 14.98  1.18 0.172  0.17 .0007 4.591   9.2 60.17 27.94     0     0  0.15  0.76 0.554  0.10  0.11  0.07  0.01  0.00  0.00  0.00  0.00  0.00  0.00
 1982  40   126   116 -14.4 14.98  1.18 0.172  0.17 .0007 4.591   9.2 60.17 28.17     0     0  0.15  0.76 0.554  0.10  0.11  0.07  0.01  0.00  0.00  0.00  0.00  0.00  0.00
 1982  41   127   117 -11.6 14.98  1.18 0.172  0.17 .0007 4.591   9.2 60.17 28.41     0     0  0.15  0.76 0.554  0.10  0.11  0.07  0.01  0.00  0.00  0.00  0.00  0.00  0.00
 1982  42   128   118  -8.9 14.98  1.18 0.172  0.17 .0007 4.591   9.2 60.17 28.64     0     0  0.15  0.76 0.554  0.10  0.11  0.07  0.01  0.00  0.00  0.00  0.00  0.00  0.00
 1982  43   129   119  -2.2 14.98  1.18 0.172  0.17 .0007 4.591   9.2 60.17 28.87     0     0  0.15  0.76 0.554  0.10  0.11  0.07  0.01  0.00  0.00  0.00  0.00  0.00  0.00
 1982  44   130   120  -4.1 14.98  1.18 0.172  0.17 .0007 4.591   9.2 60.17 29.10     0     0  0.15  0.76 0.554  0.10  0.11  0.07  0.01  0.00  0.00  0.00  0.00  0.00  0.00
 1982  45   131   121   2.8 15.01  1.19 0.172  0.17 .0009 4.591   9.2 60.17 29.32     0     0  0.15  0.76 0.556  0.10  0.11  0.07  0.01  0.00  0.00  0.00  0.00  0.00  0.00
 1982  46   132   122   4.7 15.06  1.19 0.172  0.17 .0009 4.673   9.2 60.17 29.55     0     0  0.16  0.76 0.560  0.10  0.11  0.07  0.01  0.00  0.00  0.00  0.00  0.00  0.00
 1982  47   133   123   3.6 15.10  1.20 0.172  0.17 .0010 4.812   9.2 60.17 29.77     0     0  0.16  0.76 0.563  0.10  0.10  0.07  0.01  0.00  0.00  0.00  0.00  0.00  0.00
 1982  48   134   124   2.5 15.13  1.20 0.172  0.17 .0010 4.920   9.2 60.17 29.99     0     0  0.16  0.76 0.565  0.10  0.10  0.07  0.01  0.00  0.00  0.00  0.00  0.00  0.00
 1982  49   135   125   7.0 15.20  1.21 0.172  0.17 .0012 4.995   9.2 60.17 30.21     0     0  0.16  0.76 0.571  0.09  0.10  0.07  0.01  0.00  0.00  0.00  0.00  0.00  0.00
 1982  50   136   126   8.9 15.29  1.22 0.172  0.17 .0015 5.206   9.2 60.17 30.43     0     0  0.17  0.76 0.578  0.09  0.10  0.07  0.01  0.00  0.00  0.00  0.00  0.00  0.00
 1982  51   137   127  11.1 15.41  1.23 0.173  0.17 .0020 5.479   9.2 60.17 30.64     0     0  0.18  0.76 0.587  0.09  0.10  0.06  0.01  0.00  0.00  0.00  0.00  0.00  0.00
 1982  52   138   128  10.0 15.52  1.25 0.174  0.17 .0027 5.823   9.2 60.17 30.86     0     0  0.19  0.76 0.595  0.09  0.10  0.06  0.01  0.00  0.00  0.00  0.00  0.00  0.00
 1982  53   139   129  12.2 15.65  1.26 0.174  0.17 .0035 6.135   9.2 60.17 31.07     0     0  0.21  0.76 0.606  0.09  0.10  0.06  0.01  0.00  0.00  0.00  0.00  0.00  0.00
 1982  54   140   130   9.4 15.75  1.27 0.175  0.17 .0036 6.521   9.2 60.17 31.28     0     0  0.21  0.76 0.613  0.09  0.10  0.06  0.01  0.00  0.00  0.00  0.00  0.00  0.00
 1982  55   141   131   3.3 15.78  1.28 0.175  0.17 .0044 6.821   9.2 60.17 31.49     0     0  0.22  0.76 0.616  0.09  0.10  0.06  0.01  0.00  0.00  0.00  0.00  0.00  0.00
 1982  56   142   132  -1.4 15.78  1.28 0.175  0.17 .0044 6.928   9.2 60.17 31.70     0     0  0.23  0.76 0.616  0.09  0.10  0.06  0.01  0.00  0.00  0.00  0.00  0.00  0.00
 1982  57   143   133  -2.0 15.78  1.28 0.175  0.17 .0044 6.928   9.2 60.17 31.91     0     0  0.23  0.76 0.616  0.09  0.10  0.06  0.01  0.00  0.00  0.00  0.00  0.00  0.00
 1982  58   144   134   1.7 15.80  1.28 0.176  0.17 .0048 6.928   9.2 60.17 32.12     0     0  0.24  0.76 0.617  0.09  0.10  0.06  0.01  0.00  0.00  0.00  0.00  0.00  0.00
 1982  59   145   135   4.7 21.00  1.29 0.177  0.17 .0059 6.983   9.2 60.17 32.32     0     0  0.26  0.76 0.621  0.09  0.10  0.06  0.01  0.00  0.00  0.00  0.00  0.00  0.00
 1982  60   146   136   8.4 21.07  1.30 0.179  0.17 .0078 7.138   9.2 60.17 32.53     0     0  0.29  0.76 0.628  0.09  0.10  0.06  0.01  0.00  0.00  0.00  0.00  0.00  0.00
 1982  61   147   137   8.7 21.15  1.31 0.179  0.17 .0085 7.418   9.2 60.17 32.73     0     0  0.31  0.76 0.635  0.09  0.10  0.06  0.01  0.00  0.00  0.00  0.00  0.00  0.00
 1982  62   148   138  -0.2 21.15  1.31 0.179  0.17 .0085 7.709   9.2 60.17 32.93     0     0  0.31  0.77 0.635  0.09  0.09  0.06  0.01  0.00  0.00  0.00  0.00  0.00  0.00
 1982  63   149   139  -3.7 21.15  1.31 0.179  0.17 .0085 7.709   9.2 60.17 33.13     0     0  0.31  0.77 0.635  0.09  0.09  0.06  0.01  0.00  0.00  0.00  0.00  0.00  0.00
 1982  64   150   140  -4.2 21.15  1.31 0.179  0.17 .0085 7.709   9.2 60.17 33.33     0     0  0.31  0.77 0.635  0.09  0.09  0.06  0.01  0.00  0.00  0.00  0.00  0.00  0.00
 1982  65   151   141  -3.0 21.15  1.31 0.179  0.17 .0085 7.709   9.2 60.17 33.53     0     0  0.32  0.77 0.635  0.08  0.09  0.06  0.01  0.00  0.00  0.00  0.00  0.00  0.00
 1982  66   152   142  -3.0 21.15  1.31 0.179  0.17 .0085 7.709   9.2 60.17 33.73     0     0  0.32  0.77 0.635  0.08  0.09  0.06  0.01  0.00  0.00  0.00  0.00  0.00  0.00
 1982  67   153   143   2.5 21.17  1.31 0.181  0.17 .0098 7.709   9.2 60.17 33.92     0     0  0.35  0.77 0.637  0.08  0.09  0.06  0.01  0.00  0.00  0.00  0.00  0.00  0.00
 1982  68   154   144   1.4 21.18  1.31 0.181  0.17 .0102 7.798   9.2 60.17 34.11     0     0  0.36  0.77 0.638  0.08  0.09  0.06  0.01  0.00  0.00  0.00  0.00  0.00  0.00
 1982  69   155   145  11.1 21.27  1.33 0.184  0.17 .0135 7.847   9.2 60.17 34.31     0     0  0.42  0.77 0.648  0.08  0.09  0.06  0.01  0.00  0.00  0.00  0.00  0.00  0.00
 1982  70   156   146  10.0 21.36  1.34 0.188  0.17 .0171 8.246   9.2 60.17 34.50     0     0  0.49  0.77 0.656  0.08  0.09  0.06  0.01  0.00  0.00  0.00  0.00  0.00  0.00
 1982  71   157   147  12.8 21.46  1.36 0.191  0.17 .0197 8.609   9.2 60.17 34.69     0     0  0.53  0.77 0.666  0.08  0.09  0.06  0.01  0.00  0.00  0.00  0.00  0.00  0.00
 1982  72   158   148   8.0 21.53  1.37 0.197  0.17 .0263 9.076   9.2 60.17 34.89     0     0  0.65  0.77 0.673  0.08  0.09  0.06  0.01  0.00  0.00  0.00  0.00  0.00  0.00
 1982  73   159   149   7.8 21.60  1.39 0.198  0.17 .0270 9.372   9.2 60.17 35.09     0     0  0.66  0.77 0.679  0.08  0.09  0.06  0.01  0.00  0.00  0.00  0.00  0.00  0.00
 1982  74   160   150  10.0 21.68  1.40 0.201  0.17 .0300 9.661   9.2 60.17 35.28     0     0  0.72  0.77 0.688  0.08  0.09  0.06  0.01  0.00  0.00  0.00  0.00  0.00  0.00
 1982  75   161   151  13.0 21.79  1.42 0.212  0.17 .0413 10.03   9.2 60.17 35.48     0     0  0.90  0.77 0.698  0.08  0.09  0.06  0.01  0.00  0.00  0.00  0.00  0.00  0.00
 1982  76   162   152  13.9 21.91  1.44 0.226  0.17 .0554 10.52   9.2 60.17 35.68     0     0  1.11  0.77 0.710  0.09  0.09  0.06  0.01  0.00  0.00  0.00  0.00  0.00  0.00
 1982  77   163   153   9.8 21.99  1.46 0.229  0.17 .0577 11.05   9.2 60.17 35.89     0     0  1.15  0.77 0.718  0.08  0.09  0.06  0.01  0.00  0.00  0.00  0.00  0.00  0.00
 1982  78   164   154  16.1 22.13  1.48 0.247  0.17 .0756 11.42   9.2 60.17 36.10     0     0  1.40  0.77 0.731  0.09  0.10  0.07  0.01  0.01  0.00  0.00  0.00  0.00  0.00
 1982  79   165   155   8.3 22.20  1.49 0.268  0.17 .0969 12.04   9.2 60.17 36.32     0     0  1.77  0.77 0.738  0.09  0.10  0.07  0.01  0.01  0.00  0.00  0.00  0.00  0.00
 1982  80   166   156   2.5 22.22  1.50 0.270  0.17 .0988 12.36   9.2 60.17 36.56     0     0  1.97  0.77 0.740  0.09  0.11  0.08  0.01  0.01  0.00  0.00  0.00  0.00  0.00
 1982  81   167   157   3.9 22.25  1.50 0.274  0.17 0.103 12.46   9.2 60.17 36.80     0     0  2.27  0.77 0.743  0.09  0.11  0.08  0.01  0.01  0.00  0.00  0.00  0.00  0.00
 1982  82   168   158   7.8 22.32  1.52 0.293  0.17 0.122 12.61   9.2 60.17 37.07     0     0  2.46  0.78 0.749  0.10  0.12  0.09  0.02  0.01  0.00  0.00  0.00  0.00  0.00
 1982  83   169   159   6.6 22.37  1.53 0.307  0.17 0.136 12.92   9.2 60.17 37.34     0     0  2.75  0.78 0.755  0.11  0.12  0.09  0.02  0.01  0.00  0.00  0.00  0.00  0.00
 1982  84   170   160   3.9 22.42  1.53 0.311  0.17 0.140 13.19   9.2 60.17 37.64     0     0  3.02  0.78 0.758  0.12  0.13  0.10  0.02  0.02  0.00  0.00  0.00  0.00  0.00
 1982  85   171   161   3.0 22.46  1.54 0.314  0.17 0.143 13.34   9.2 60.17 37.97     0     0  3.22  0.78 0.761  0.12  0.14  0.11  0.02  0.02  0.00  0.00  0.00  0.00  0.00
 1982  86   172   162   5.6 22.53  1.55 0.324  0.17 0.153 13.46   9.2 60.17 38.31     0     0  3.45  0.78 0.765  0.13  0.15  0.12  0.02  0.02  0.00  0.00  0.00  0.00  0.00
 1982  87   173   163   6.9 22.62  1.56 0.339  0.17 0.168 13.69   9.2 60.17 38.68     0     0  3.61  0.78 0.771  0.14  0.15  0.12  0.02  0.02  0.00  0.00  0.00  0.00  0.00
 1982  88   174   164  10.3 22.71  1.58 0.363  0.17 0.192 13.97   9.2 60.17 39.07     0     0  3.73  0.78 0.779  0.15  0.16  0.12  0.02  0.02  0.00  0.00  0.00  0.00  0.00
 1982  89   175   165  15.0 22.90  1.60 0.411  0.17 0.240 14.40   9.2 60.17 39.47     0     0  3.96  0.78 0.792  0.16  0.17  0.14  0.03  0.03  0.00  0.00  0.00  0.00  0.00
 1982  90   176   166  10.9 23.04  1.62 0.448  0.17 0.276 15.02   9.2 60.35 39.91     0     0  4.21  0.78 0.800  0.18  0.19  0.15  0.03  0.03  0.00  0.00  0.00  0.00  0.00
 1982  91   177   167  13.9 23.21  1.64 0.506  0.17 0.334 15.47   9.2 60.35 40.41     0     0  4.43  0.78 0.812  0.21  0.21  0.17  0.04  0.04  0.00  0.00  0.00  0.00  0.00
 1982  92   178   168  17.0 23.41  1.67 0.574  0.17 0.402 16.05   9.2 60.35 40.96     0     0  4.60  0.78 0.826  0.23  0.22  0.18  0.04  0.04  0.00  0.00  0.00  0.00  0.00
 1982  93   179   169   7.5 23.50  1.68 0.595  0.17 0.423 16.77   9.2 60.35 41.58     0     0  4.78  0.77 0.832  0.27  0.25  0.21  0.05  0.05  0.01  0.00  0.00  0.00  0.00
 1982  94   180   170   5.2 23.62  1.69 0.606  0.17 0.434 17.08   9.2 60.35 42.27     0     0  4.91  0.78 0.836  0.30  0.27  0.23  0.05  0.05  0.01  0.00  0.00  0.00  0.00
 1982  95   181   171   3.6 23.70  1.70 0.611  0.17 0.439 17.31   9.2 60.35 43.04     0     0  4.97  0.78 0.839  0.31  0.28  0.23  0.05  0.06  0.01  0.00  0.00  0.00  0.00
 1982  96   182   172  -0.8 23.70  1.70 0.611  0.17 0.439 17.46   9.2 60.35 43.82     0     0  5.01  0.78 0.839  0.31  0.28  0.23  0.05  0.05  0.01  0.00  0.00  0.00  0.00
 1982  97   183   173   3.0 23.77  1.70 0.614  0.17 0.443 17.46   9.2 60.35 44.60     0     0  5.07  0.78 0.842  0.31  0.28  0.23  0.05  0.06  0.01  0.00  0.00  0.00  0.00
 1982  98   184   174   4.4 23.88  1.71 0.622  0.17 0.450 17.59   9.2 60.35 45.38     0     0  5.15  0.78 0.845  0.33  0.29  0.24  0.06  0.06  0.01  0.00  0.00  0.00  0.00
 1982  99   185   175   4.1 23.98  1.72 0.629  0.17 0.457 17.79   9.2 60.35 46.20     0     0  5.26  0.78 0.849  0.37  0.32  0.26  0.06  0.07  0.01  0.00  0.00  0.00  0.00
 1982 100   186   176   8.7 24.19  1.73 0.659  0.17 0.487 17.97   9.2 60.35 47.10     0     0  5.37  0.78 0.856  0.41  0.35  0.28  0.07  0.07  0.01  0.00  0.00  0.00  0.00
 1982 101   187   177  13.6 24.52  1.76 0.723  0.17 0.551 18.35   9.2 60.35 48.10     0     0  5.47  0.78 0.867  0.46  0.38  0.31  0.07  0.08  0.01  0.00  0.00  0.00  0.00
 1982 102   188   178  20.2 25.01  1.79 0.818  0.17 0.646 18.95   9.2 60.35 49.19     0     0  5.57  0.79 0.884  0.51  0.42  0.34  0.08  0.09  0.01  0.00  0.00  0.00  0.00
 1982 103   189   179  16.1 25.39  1.82 0.900  0.17 0.727 19.86   9.2 60.63 50.40     0     0  5.65  0.78 0.897  0.57  0.46  0.37  0.09  0.10  0.01  0.00  0.00  0.00  0.00
 1982 104   190   180  21.1 25.88  1.86     1  0.17 0.822 20.58   9.2 61.00 51.73     0     0  5.73  0.78 0.914  0.64  0.50  0.40  0.10  0.11  0.02  0.00  0.00  0.00  0.00
 1982 105   191   181  24.2 26.60  1.91 1.080  0.18 0.904 21.54   9.2 61.43 53.19     0     0  5.78  0.78 0.934  0.69  0.53  0.42  0.11  0.12  0.02  0.00  0.00  0.00  0.00
 1982 106   192   182  18.4 27.01  1.94 1.156  0.18 0.978 22.63   9.2 61.75 54.75     0     0  5.83  0.78 0.949  0.71  0.54  0.43  0.11  0.13  0.02  0.00  0.00  0.00  0.00
 1982 107   193   183  10.0 27.31  1.96 1.213  0.18 1.030 23.47   9.2 62.87 56.35     0     0  5.90  0.78 0.957  0.81  0.60  0.46  0.13  0.14  0.02  0.00  0.00  0.00  0.00
 1982 108   194   184  12.2 27.67  1.98 1.283  0.19 1.094 23.93   9.2 64.24 58.12     0     0  5.95  0.79 0.968  0.90  0.65  0.49  0.14  0.16  0.03  0.00  0.00  0.00  0.00
 1982 109   195   185  15.3 28.12  2.01 1.371  0.20 1.174 24.49   9.2 65.96 60.05     0     0  6.01  0.79 0.980  0.99  0.71  0.52  0.15  0.17  0.03  0.00  0.00  0.00  0.00
 1982 110   196   186   6.7 28.12  2.03 1.397  0.20 1.197 25.28   9.2 66.58 62.14     0     0  6.06  0.79 0.986  1.10  0.76  0.56  0.16  0.18  0.03  0.00  0.00  0.00  0.00
 1982 111   197   187   7.0 28.12  2.06 1.426  0.20 1.224 25.86   9.2 67.22 64.39     0     0  6.12  0.79 0.991  1.20  0.82  0.58  0.17  0.20  0.03  0.00  0.00  0.00  0.00
 1982 112   198   188   8.6 28.12  2.09 1.471  0.21 1.265 26.47   9.2 68.02 66.80     0     0  6.18  0.79 0.998  1.31  0.88  0.62  0.19  0.21  0.04  0.00  0.00  0.00  0.00
 1982 113   199   189  11.7 28.12  2.13 1.543  0.21 1.333 27.22   9.2 69.11 69.40     0     0  6.24  0.79 1.008  1.42  0.93  0.65  0.20  0.22  0.04  0.00  0.00  0.00  0.00
 1982 114   200   190  16.4 28.12  2.19 1.644  0.22 1.427 28.25   9.2 70.64 72.16     0     0  6.30  0.80 1.021  1.51  0.98  0.67  0.21  0.23  0.04  0.01  0.00  0.00  0.00
 1982 115   201   191  13.1 28.12  2.23 1.723  0.22 1.500 29.69   9.2 71.86 75.06     0     0  6.35  0.80 1.032  1.56  1.01  0.68  0.21  0.24  0.05  0.01  0.00  0.00  0.00
 1982 116   202   192  14.1 30.44  2.28 1.808  0.23 1.574 30.83   9.2 75.70 78.03     0     0  6.39  0.80 1.044  1.69  1.07  0.71  0.22  0.25  0.05  0.01  0.00  0.00  0.00
 1982 117   203   193  10.6 30.94  2.32 1.867  0.24 1.624 32.07   9.2 78.62 81.19     0     0  6.43  0.80 1.052  1.72  1.08  0.72  0.23  0.26  0.05  0.01  0.00  0.00  0.00
 1982 118   204   194   8.4 31.33  2.35 1.883  0.25 1.634 33.00   9.2 80.97 84.39     0     0  6.47  0.80 1.059  1.72  1.08  0.72  0.22  0.25  0.05  0.01  0.00  0.00  0.00
 1982 119   205   195  10.0 31.79  2.38 1.941  0.26 1.683 33.74   9.2 83.80 87.58     0     0  6.51  0.80 1.068  1.74  1.09  0.72  0.23  0.26  0.05  0.01  0.00  0.00  0.00
 1982 120   206   196  13.9 32.44  2.43 2.023  0.27 1.753 34.61   9.2 87.80 90.79     0     0  6.55  0.81 1.079  1.75  1.13  0.73  0.23  0.26  0.05  0.01  0.00  0.00  0.00
 1982 121   207   197  16.1 33.20  2.49 2.120  0.28 1.837 35.83   9.2 92.55 94.07     0     0  6.60  0.81 1.092  1.76  1.19  0.75  0.24  0.27  0.05  0.01  0.00  0.00  0.00
 1982 122   208   198  18.0 34.04  2.55 2.233  0.30 1.934 37.25   9.2 98.01 97.44     0     0  6.66  0.82 1.107  1.78  1.26  0.77  0.25  0.28  0.06  0.01  0.00  0.00  0.00
 1982 123   209   199  22.0 35.07  2.63 2.356  0.32 2.038 38.83   9.2 104.8 100.9     0     0  6.73  0.82 1.125  1.80  1.33  0.80  0.26  0.29  0.06  0.01  0.00  0.00  0.00
 1982 124   210   200  24.5 36.21  2.72 2.459  0.34 2.119 40.76   9.2 112.6 104.6     0     0  6.82  0.83 1.145  1.83  1.40  0.84  0.27  0.31  0.06  0.01  0.00  0.00  0.00
 1982 125   211   201  18.0 37.06  2.78 2.520  0.36 2.164 42.90   9.2 118.4 108.4     0     0  6.86  0.84 1.160  1.83  1.41  0.85  0.27  0.31  0.07  0.02  0.00  0.00  0.00
 1982 126   212   202  10.9 37.57  2.82 2.586  0.37 2.220 44.49   9.2 121.9 112.3     0     0  6.96  0.84 1.169  1.85  1.44  0.87  0.28  0.32  0.07  0.02  0.00  0.00  0.00
 1982 127   213   203  14.4 38.24  2.87 2.675  0.38 2.296 45.44   9.2 126.6 116.2     0     0  7.09  0.84 1.181  1.89  1.49  0.94  0.30  0.33  0.07  0.02  0.00  0.00  0.00
 1982 128   214   204  20.5 39.20  2.94 2.797  0.40 2.400 46.71   9.2 133.3 120.3     0     0  7.22  0.84 1.198  1.93  1.53  1.01  0.31  0.35  0.08  0.03  0.00  0.00  0.00
[...]
 1982  59   145   135   4.7 21.00  1.29 0.177  0.17 .0059 6.983   9.2 60.17 32.32     0     0  0.26  0.76 0.621  0.09  0.10  0.06  0.01  0.00  0.00  0.00  0.00  0.00  0.00
 1982  60   146   136   8.4 21.07  1.30 0.179  0.17 .0078 7.138   9.2 60.17 32.53     0     0  0.29  0.76 0.628  0.09  0.10  0.06  0.01  0.00  0.00  0.00  0.00  0.00  0.00
 1982  61   147   137   8.7 21.15  1.31 0.179  0.17 .0085 7.418   9.2 60.17 32.73     0     0  0.31  0.76 0.635  0.09  0.10  0.06  0.01  0.00  0.00  0.00  0.00  0.00  0.00
 1982  62   148   138  -0.2 21.15  1.31 0.179  0.17 .0085 7.709   9.2 60.17 32.93     0     0  0.31  0.77 0.635  0.09  0.09  0.06  0.01  0.00  0.00  0.00  0.00  0.00  0.00
 1982  63   149   139  -3.7 21.15  1.31 0.179  0.17 .0085 7.709   9.2 60.17 33.13     0     0  0.31  0.77 0.635  0.09  0.09  0.06  0.01  0.00  0.00  0.00  0.00  0.00  0.00
 1982  64   150   140  -4.2 21.15  1.31 0.179  0.17 .0085 7.709   9.2 60.17 33.33     0     0  0.31  0.77 0.635  0.09  0.09  0.06  0.01  0.00  0.00  0.00  0.00  0.00  0.00
 1982  65   151   141  -3.0 21.15  1.31 0.179  0.17 .0085 7.709   9.2 60.17 33.53     0     0  0.32  0.77 0.635  0.08  0.09  0.06  0.01  0.00  0.00  0.00  0.00  0.00  0.00
 1982  66   152   142  -3.0 21.15  1.31 0.179  0.17 .0085 7.709   9.2 60.17 33.73     0     0  0.32  0.77 0.635  0.08  0.09  0.06  0.01  0.00  0.00  0.00  0.00  0.00  0.00
 1982  67   153   143   2.5 21.17  1.31 0.181  0.17 .0098 7.709   9.2 60.17 33.92     0     0  0.35  0.77 0.637  0.08  0.09  0.06  0.01  0.00  0.00  0.00  0.00  0.00  0.00
 1982  68   154   144   1.4 21.18  1.31 0.181  0.17 .0102 7.798   9.2 60.17 34.11     0     0  0.36  0.77 0.638  0.08  0.09  0.06  0.01  0.00  0.00  0.00  0.00  0.00  0.00
 1982  69   155   145  11.1 21.27  1.33 0.184  0.17 .0135 7.847   9.2 60.17 34.31     0     0  0.42  0.77 0.648  0.08  0.09  0.06  0.01  0.00  0.00  0.00  0.00  0.00  0.00
 1982  70   156   146  10.0 21.36  1.34 0.188  0.17 .0171 8.246   9.2 60.17 34.50     0     0  0.49  0.77 0.656  0.09  0.09  0.06  0.01  0.00  0.00  0.00  0.00  0.00  0.00
 1982  71   157   147  12.8 21.46  1.36 0.191  0.17 .0197 8.609   9.2 60.17 34.69     0     0  0.53  0.77 0.666  0.09  0.09  0.06  0.01  0.00  0.00  0.00  0.00  0.00  0.00
 1982  72   158   148   8.0 21.53  1.37 0.197  0.17 .0263 9.076   9.2 60.17 34.89     0     0  0.65  0.77 0.673  0.09  0.09  0.06  0.01  0.00  0.00  0.00  0.00  0.00  0.00
 1982  73   159   149   7.8 21.60  1.39 0.198  0.17 .0270 9.372   9.2 60.17 35.09     0     0  0.66  0.77 0.679  0.09  0.09  0.06  0.01  0.00  0.00  0.00  0.00  0.00  0.00
 1982  74   160   150  10.0 21.68  1.40 0.201  0.17 .0300 9.661   9.2 60.17 35.28     0     0  0.72  0.77 0.688  0.09  0.09  0.06  0.01  0.00  0.00  0.00  0.00  0.00  0.00
 1982  75   161   151  13.0 21.79  1.42 0.212  0.17 .0413 10.03   9.2 60.17 35.48     0     0  0.90  0.77 0.698  0.09  0.09  0.06  0.01  0.00  0.00  0.00  0.00  0.00  0.00
 1982  76   162   152  13.9 21.91  1.44 0.226  0.17 .0554 10.52   9.2 60.17 35.68     0     0  1.11  0.77 0.710  0.09  0.10  0.06  0.01  0.00  0.00  0.00  0.00  0.00  0.00
 1982  77   163   153   9.8 21.99  1.46 0.229  0.17 .0577 11.05   9.2 60.17 35.89     0     0  1.15  0.77 0.718  0.09  0.10  0.06  0.01  0.00  0.00  0.00  0.00  0.00  0.00
 1982  78   164   154  16.1 22.13  1.48 0.247  0.17 .0756 11.42   9.2 60.17 36.10     0     0  1.40  0.77 0.731  0.10  0.10  0.07  0.01  0.00  0.00  0.00  0.00  0.00  0.00
 1982  79   165   155   8.3 22.20  1.49 0.268  0.17 .0969 12.04   9.2 60.17 36.32     0     0  1.77  0.77 0.738  0.10  0.11  0.07  0.01  0.00  0.00  0.00  0.00  0.00  0.00
 1982  80   166   156   2.5 22.22  1.50 0.270  0.17 .0988 12.36   9.2 60.17 36.55     0     0  1.97  0.77 0.740  0.11  0.11  0.07  0.01  0.01  0.00  0.00  0.00  0.00  0.00
 1982  81   167   157   3.9 22.25  1.50 0.274  0.17 0.103 12.46   9.2 60.17 36.80     0     0  2.27  0.77 0.743  0.11  0.12  0.08  0.01  0.01  0.00  0.00  0.00  0.00  0.00
 1982  82   168   158   7.8 22.32  1.52 0.293  0.17 0.122 12.61   9.2 60.17 37.07     0     0  2.46  0.78 0.749  0.12  0.12  0.08  0.01  0.01  0.00  0.00  0.00  0.00  0.00
 1982  83   169   159   6.6 22.37  1.53 0.307  0.17 0.136 12.92   9.2 60.17 37.34     0     0  2.75  0.78 0.755  0.13  0.13  0.09  0.01  0.01  0.00  0.00  0.00  0.00  0.00
 1982  84   170   160   3.9 22.42  1.53 0.311  0.17 0.140 13.19   9.2 60.17 37.64     0     0  3.02  0.78 0.758  0.14  0.14  0.10  0.01  0.01  0.00  0.00  0.00  0.00  0.00
 1982  85   171   161   3.0 22.46  1.54 0.314  0.17 0.143 13.34   9.2 60.17 37.97     0     0  3.22  0.78 0.761  0.15  0.15  0.10  0.02  0.01  0.00  0.00  0.00  0.00  0.00
 1982  86   172   162   5.6 22.53  1.55 0.324  0.17 0.153 13.46   9.2 60.17 38.31     0     0  3.45  0.78 0.765  0.16  0.16  0.11  0.02  0.01  0.00  0.00  0.00  0.00  0.00
 1982  87   173   163   6.9 22.62  1.56 0.339  0.17 0.168 13.69   9.2 60.17 38.68     0     0  3.61  0.78 0.771  0.17  0.17  0.12  0.02  0.01  0.00  0.00  0.00  0.00  0.00
 1982  88   174   164  10.3 22.71  1.58 0.363  0.17 0.192 13.97   9.2 60.17 39.07     0     0  3.73  0.78 0.779  0.17  0.18  0.12  0.02  0.01  0.00  0.00  0.00  0.00  0.00
 1982  89   175   165  15.0 22.90  1.60 0.411  0.17 0.240 14.40   9.2 60.17 39.47     0     0  3.96  0.78 0.792  0.19  0.19  0.13  0.02  0.01  0.00  0.00  0.00  0.00  0.00
 1982  90   176   166  10.9 23.04  1.62 0.449  0.17 0.277 15.02   9.2 60.35 39.91     0     0  4.22  0.78 0.800  0.22  0.22  0.15  0.02  0.02  0.00  0.00  0.00  0.00  0.00
 1982  91   177   167  13.9 23.22  1.64 0.508  0.17 0.336 15.47   9.2 60.35 40.41     0     0  4.46  0.78 0.812  0.24  0.25  0.16  0.03  0.02  0.00  0.00  0.00  0.00  0.00
 1982  92   178   168  17.0 23.43  1.67 0.579  0.17 0.407 16.05   9.2 60.35 40.97     0     0  4.64  0.78 0.826  0.27  0.27  0.18  0.03  0.02  0.00  0.00  0.00  0.00  0.00
 1982  93   179   169   7.5 23.52  1.68 0.603  0.17 0.431 16.77   9.2 60.35 41.58     0     0  4.86  0.78 0.832  0.31  0.31  0.20  0.03  0.03  0.00  0.00  0.00  0.00  0.00
 1982  94   180   170   5.2 23.65  1.69 0.614  0.17 0.443 17.08   9.2 60.35 42.29     0     0  5.01  0.78 0.836  0.34  0.34  0.22  0.04  0.03  0.00  0.00  0.00  0.00  0.00
 1982  95   181   171   3.6 23.75  1.70 0.620  0.17 0.448 17.31   9.2 60.35 43.07     0     0  5.09  0.78 0.839  0.35  0.35  0.23  0.04  0.03  0.00  0.00  0.00  0.00  0.00
 1982  96   182   172  -0.8 23.75  1.70 0.620  0.17 0.448 17.46   9.2 60.35 43.87     0     0  5.13  0.78 0.839  0.35  0.35  0.23  0.04  0.03  0.00  0.00  0.00  0.00  0.00
 1982  97   183   173   3.0 23.82  1.70 0.624  0.17 0.452 17.46   9.2 60.35 44.66     0     0  5.19  0.78 0.842  0.35  0.35  0.23  0.04  0.03  0.00  0.00  0.00  0.00  0.00
 1982  98   184   174   4.4 23.93  1.71 0.632  0.17 0.460 17.59   9.2 60.35 45.46     0     0  5.27  0.79 0.845  0.35  0.37  0.24  0.04  0.03  0.00  0.00  0.00  0.00  0.00
 1982  99   185   175   4.1 24.04  1.72 0.639  0.17 0.467 17.79   9.2 60.35 46.30     0     0  5.40  0.79 0.849  0.37  0.41  0.26  0.05  0.04  0.00  0.00  0.00  0.00  0.00
 1982 100   186   176   8.7 24.26  1.73 0.676  0.17 0.504 17.97   9.2 60.35 47.22     0     0  5.51  0.79 0.856  0.39  0.45  0.29  0.06  0.05  0.00  0.00  0.00  0.00  0.00
 1982 101   187   177  13.6 24.60  1.76 0.742  0.17 0.570 18.35   9.2 60.35 48.24     0     0  5.61  0.79 0.867  0.43  0.49  0.32  0.07  0.05  0.01  0.00  0.00  0.00  0.00
 1982 102   188   178  20.2 25.11  1.79 0.840  0.17 0.669 18.95   9.2 60.35 49.37     0     0  5.71  0.79 0.884  0.47  0.54  0.35  0.08  0.06  0.01  0.00  0.00  0.00  0.00
 1982 103   189   179  16.1 25.52  1.82 0.928  0.17 0.755 19.86   9.2 60.63 50.62     0     0  5.81  0.79 0.897  0.54  0.58  0.39  0.09  0.07  0.01  0.00  0.00  0.00  0.00
 1982 104   190   180  21.1 26.05  1.86 1.034  0.17 0.859 20.58   9.2 61.00 51.99     0     0  5.90  0.79 0.914  0.61  0.63  0.42  0.10  0.08  0.01  0.00  0.00  0.00  0.00
 1982 105   191   181  24.2 26.87  1.91 1.138  0.18 0.961 21.54   9.2 61.43 53.51     0     0  5.98  0.79 0.934  0.66  0.67  0.45  0.11  0.08  0.01  0.00  0.00  0.00  0.00
 1982 106   192   182  18.4 27.37  1.94 1.229  0.18 1.051 22.63   9.2 61.76 55.14     0     0  6.04  0.80 0.949  0.69  0.68  0.46  0.12  0.09  0.01  0.00  0.00  0.00  0.00
 1982 107   193   183  10.0 27.70  1.96 1.294  0.18 1.111 23.47   9.2 62.87 56.81     0     0  6.13  0.80 0.957  0.79  0.75  0.51  0.13  0.10  0.01  0.00  0.00  0.00  0.00
 1982 108   194   184  12.2 28.11  1.98 1.374  0.19 1.185 23.93   9.2 64.24 58.68     0     0  6.22  0.80 0.968  0.89  0.81  0.55  0.15  0.11  0.01  0.00  0.00  0.00  0.00
 1982 109   195   185  15.3 28.63  2.01 1.479  0.20 1.282 24.49   9.2 65.97 60.72     0     0  6.29  0.80 0.980  0.99  0.86  0.59  0.16  0.12  0.01  0.00  0.00  0.00  0.00
 1982 110   196   186   6.7 28.63  2.03 1.509  0.20 1.309 25.28   9.2 66.64 62.95     0     0  6.37  0.80 0.986  1.11  0.93  0.64  0.18  0.14  0.02  0.00  0.00  0.00  0.00
 1982 111   197   187   7.0 28.63  2.06 1.542  0.20 1.339 25.86   9.2 67.35 65.37     0     0  6.44  0.80 0.991  1.12  1.00  0.68  0.20  0.16  0.02  0.00  0.00  0.00  0.00
 1982 112   198   188   8.6 28.63  2.09 1.593  0.21 1.386 26.47   9.2 68.22 67.96     0     0  6.52  0.80 0.998  1.14  1.09  0.73  0.22  0.19  0.02  0.00  0.00  0.00  0.00
 1982 113   199   189  11.7 28.63  2.13 1.673  0.21 1.461 27.22   9.2 69.41 70.77     0     0  6.59  0.80 1.008  1.17  1.17  0.77  0.23  0.21  0.02  0.00  0.00  0.00  0.00
 1982 114   200   190  16.4 28.63  2.19 1.786  0.22 1.566 28.25   9.2 71.08 73.75     0     0  6.65  0.81 1.021  1.20  1.23  0.80  0.25  0.23  0.03  0.00  0.00  0.00  0.00
 1982 115   201   191  13.1 28.63  2.23 1.876  0.23 1.650 29.69   9.2 72.42 76.89     0     0  6.72  0.81 1.032  1.22  1.26  0.82  0.26  0.25  0.03  0.00  0.00  0.00  0.00
 1982 116   202   192  14.1 30.44  2.28 1.974  0.24 1.736 30.83   9.2 76.56 80.11     0     0  6.77  0.81 1.044  1.29  1.33  0.87  0.28  0.27  0.03  0.00  0.00  0.00  0.00
 1982 117   203   193  10.6 30.94  2.32 2.047  0.25 1.800 32.07   9.2 79.71 83.55     0     0  6.82  0.81 1.052  1.30  1.35  0.88  0.28  0.28  0.03  0.00  0.00  0.00  0.00
 1982 118   204   194   8.4 31.33  2.35 2.067  0.25 1.813 33.00   9.2 82.25 87.03     0     0  6.86  0.82 1.059  1.30  1.34  0.87  0.28  0.28  0.03  0.00  0.00  0.00  0.00
 1982 119   205   195  10.0 31.79  2.38 2.136  0.26 1.873 33.74   9.2 85.31 90.50     0     0  6.91  0.82 1.068  1.30  1.35  0.88  0.29  0.29  0.03  0.00  0.00  0.00  0.00
 1982 120   206   196  13.9 32.44  2.43 2.232  0.28 1.957 34.61   9.2 89.65 94.00     0     0  6.95  0.82 1.079  1.31  1.36  0.90  0.29  0.30  0.03  0.01  0.00  0.00  0.00
 1982 121   207   197  16.1 33.20  2.49 2.339  0.29 2.048 35.83   9.2 94.82 97.57     0     0  7.01  0.82 1.092  1.34  1.39  0.92  0.30  0.32  0.04  0.01  0.00  0.00  0.00
 1982 122   208   198  18.0 34.04  2.55 2.458  0.31 2.150 37.25   9.2 100.7 101.2     0     0  7.06  0.82 1.107  1.38  1.42  0.95  0.31  0.34  0.04  0.01  0.00  0.00  0.00
 1982 123   209   199  22.0 35.07  2.63 2.585  0.33 2.256 38.83   9.2 108.1 105.1     0     0  7.13  0.83 1.125  1.42  1.47  0.98  0.33  0.36  0.05  0.01  0.00  0.00  0.00
 1982 124   210   200  24.5 36.21  2.72 2.699  0.35 2.347 40.76   9.2 116.4 109.0     0     0  7.20  0.83 1.145  1.47  1.52  1.02  0.34  0.38  0.05  0.01  0.00  0.00  0.00
 1982 125   211   201  18.0 37.06  2.78 2.762  0.37 2.392 42.90   9.2 122.7 113.2     0     0  7.24  0.84 1.160  1.48  1.52  1.02  0.34  0.39  0.05  0.01  0.00  0.00  0.00
 1982 126   212   202  10.9 37.57  2.82 2.828  0.38 2.448 44.49   9.2 126.5 117.3     0     0  7.32  0.84 1.169  1.51  1.55  1.04  0.35  0.40  0.06  0.02  0.00  0.00  0.00
 1982 127   213   203  14.4 38.24  2.87 2.917  0.39 2.523 45.44   9.2 131.6 121.6     0     0  7.44  0.84 1.181  1.57  1.62  1.09  0.36  0.43  0.06  0.02  0.00  0.00  0.00
 1982 128   214   204  20.5 39.20  2.94 3.039  0.41 2.625 46.71   9.2 138.8 126.1     0     0  7.54  0.84 1.198  1.64  1.68  1.13  0.38  0.45  0.07  0.02  0.00  0.00  0.00
 1982 129   215   205  22.5 40.29  3.03 3.155  0.44 2.719 48.51   9.2 146.7 130.7     0     0  7.64  0.85 1.216  1.69  1.74  1.17  0.39  0.47  0.08  0.03  0.00  0.00  0.00
 1982 130   216   206  22.5 41.47  3.15 3.155  0.48 2.675 50.72   9.2 146.7 135.6     0     0  7.74  0.85 1.235  1.73  1.78  1.20  0.40  0.48  0.08  0.03  0.00  0.00  0.00
 1982 131   217   207  22.0 42.63  3.26 3.155  0.52 2.632 53.68   9.2 146.7 140.6     0     0  7.86  0.86 1.253  1.78  1.82  1.23  0.40  0.49  0.08  0.03  0.00  0.00  0.00
 1982 132   218   208  18.9 43.62  3.36 3.155  0.56 2.596 56.57   9.2 146.7 145.7     0     0  7.95  0.86 1.268  1.79  1.84  1.24  0.41  0.50  0.09  0.03  0.00  0.00  0.00
 1982 133   219   209  20.0 44.68  3.47 3.155  0.60 2.558 59.06   9.2 146.7 150.9     0     0  8.05  0.87 1.285  1.81  1.85  1.25  0.41  0.50  0.09  0.04  0.00  0.00  0.00
 1982 134   220   210  17.8 45.61  3.56 3.155  0.63 2.524 61.69   9.2 146.7 156.1     0     0  8.15  0.87 1.299  1.82  1.86  1.26  0.41  0.51  0.09  0.04  0.00  0.00  0.00
 1982 135   221   211  17.8 46.54  3.65 3.155  0.66 2.491 64.02   9.2 146.7 161.3     0     0  8.33  0.88 1.314  1.87  1.91  1.30  0.42  0.52  0.09  0.04  0.00  0.00  0.00
 1982 136   222   212  19.5 47.57  3.76 3.155  0.70 2.455 66.36   9.2 146.7 166.7     0     0  8.44  0.88 1.330  1.88  1.92  1.30  0.42  0.52  0.10  0.04  0.00  0.00  0.00
 1982 137   223   213  19.5 48.59  3.86 3.155  0.74 2.419 68.92   9.2 146.7 172.1     0     0  8.59  0.89 1.346  1.90  1.94  1.32  0.43  0.53  0.10  0.04  0.00  0.00  0.00
 1982 138   224   214  20.3 49.66  3.97 3.155  0.77 2.382 71.48   9.2 146.7 177.6     0     0  8.79  0.89 1.362  1.93  1.97  1.34  0.43  0.54  0.10  0.05  0.00  0.00  0.00
 1982 139   225   215  23.6 53.43  4.09 3.155  0.82 2.340 74.15   9.2 146.7 183.2     0     0  8.98  0.90 1.382  1.96  2.00  1.36  0.44  0.55  0.10  0.05  0.00  0.00  0.00
 1982 140   226   216  21.1 57.65  4.19 3.155  0.85 2.307 77.14   9.2 146.7 188.9     0     0  9.14  0.92 1.399  1.97  2.01  1.37  0.44  0.55  0.10  0.05  0.00  0.00  0.00
 1982 141   227   217  18.0 63.14  4.28 3.155  0.88 2.280 79.78   9.2 146.7 194.6     0     0  9.40  0.93 1.414  1.98  2.02  1.37  0.44  0.55  0.10  0.05  0.00  0.00  0.00
 1982 142   228   218  16.1 70.19  4.36 3.155  0.90 2.256 82.04   9.2 146.7 200.3     0     0  9.65  0.95 1.427  1.98  2.02  1.37  0.44  0.55  0.11  0.05  0.00  0.00  0.00
 1982 143   229   219  18.0 71.58  4.45 3.155  0.93 2.229 84.05   9.2 146.7 206.1 17646 .0000 10.00  0.97 1.442  1.98  2.02  1.37  0.44  0.55  0.11  0.05  0.00  0.00  0.00
 1982 144   230   220  18.7 73.01  4.55 3.155  0.95 2.202 86.31   9.2 146.7 211.8 17646 .0001 10.19  0.98 1.457  1.96  2.00  1.37  0.44  0.55  0.10  0.05  0.00  0.00  0.00
 1982 145   231   221  20.0 74.55  4.65 3.155  0.98 2.173 88.64   9.2 146.7 217.5 17646 .0004 10.45  0.98 1.474  1.95  1.99  1.36  0.43  0.55  0.10  0.05  0.00  0.00  0.00
 1982 146   232   222  16.4 75.81  4.73 3.155  1.01 2.149 91.14   9.2 146.7 223.2 17646 .0007 10.87  0.98 1.487  1.95  1.99  1.35  0.43  0.54  0.10  0.05  0.00  0.00  0.00
 1982 147   233   223  18.4 77.22  4.82 3.155  1.03 2.123 93.19   9.2 146.7 228.8 17646 .0012 11.34  0.98 1.502  1.94  1.98  1.35  0.43  0.54  0.10  0.05  0.00  0.00  0.00
 1982 148   234   224  23.3 79.02  4.94 3.155  1.07 2.090 95.49   9.2 146.7 234.5 17646 .0020 11.62  0.98 1.522  1.93  1.97  1.34  0.43  0.54  0.10  0.05  0.00  0.00  0.00
 1982 149   235   225  21.4 80.17  5.02 3.155  1.10 2.060 98.40   9.2 146.7 240.1 17646 .0028 12.01  0.98 1.539  1.93  1.97  1.34  0.43  0.54  0.10  0.05  0.00  0.00  0.00
 1982 150   236   226  20.5 80.58  5.06 3.155  1.11 2.047 100.0   9.2 146.7 245.7 17646 .0037 12.33  0.98 1.556  1.92  1.96  1.33  0.43  0.53  0.10  0.05  0.00  0.00  0.00
 1982 151   237   227  17.8 80.94  5.09 3.155  1.12 2.036 100.0   9.2 146.7 251.3 17646 .0045 12.61  0.98 1.571  1.91  1.95  1.33  0.42  0.53  0.10  0.05  0.00  0.00  0.00
 1982 152   238   228  12.8 81.19  5.12 3.155  1.13 2.028 100.0   9.2 146.7 256.8 17646 .0050 13.09  0.98 1.581  1.90  1.94  1.32  0.42  0.53  0.10  0.05  0.00  0.00  0.00
 1982 153   239   229  15.2 81.50  5.15 3.155  1.14 2.019 100.0   9.2 146.7 262.3 17646 .0057 13.33  0.98 1.594  1.89  1.93  1.32  0.42  0.52  0.10  0.05  0.00  0.00  0.00
 1982 154   240   230  15.0 81.80  5.18 3.155  1.15 2.010 100.0   9.2 146.7 267.8 17646 .0063 13.53  0.98 1.606  1.88  1.92  1.31  0.42  0.52  0.10  0.05  0.00  0.00  0.00
 1982 155   241   231  17.0 82.14  5.21 3.155  1.16 1.999 100.0   9.2 146.7 273.3 17646 .0071 13.82  0.98 1.620  1.87  1.91  1.30  0.41  0.52  0.10  0.05  0.00  0.00  0.00
 1982 156   242   232  17.8 82.49  5.25 3.155  1.17 1.989 100.0   9.2 146.7 278.7 17646 .0079 14.20  0.98 1.635  1.86  1.90  1.30  0.41  0.51  0.10  0.05  0.00  0.00  0.00
 1982 157   243   233  25.5 83.00  5.30 3.155  1.18 1.974 100.0   9.2 146.7 284.1 17646 .0090 14.53  0.98 1.656  1.86  1.89  1.29  0.41  0.51  0.10  0.05  0.00  0.00  0.00
 1982 158   244   234  20.2 83.41  5.34 3.155  1.19 1.970 100.0   9.2 146.7 289.5 17646 .0099 14.93  0.98 1.672  1.85  1.88  1.29  0.41  0.51  0.10  0.05  0.00  0.00  0.00
 1982 159   245   235  25.8 83.93  5.39 3.155  1.26 1.899 100.0   9.2 146.7 294.8 17646 .0111 15.22  0.98 1.693  1.84  1.87  1.28  0.41  0.51  0.10  0.05  0.00  0.00  0.00
 1982 160   246   236  22.8 84.38  5.44 3.155  1.41 1.743 100.0   9.2 146.7 300.2 17646 .0121 15.53  0.98 1.712  1.83  1.87  1.27  0.40  0.50  0.10  0.05  0.00  0.00  0.00
 1982 161   247   237  16.4 84.71  5.47 3.155  1.64 1.514 100.0   9.2 146.7 305.5 17646 .0129 15.84  0.98 1.725  1.82  1.86  1.27  0.40  0.50  0.10  0.05  0.00  0.00  0.00
 1982 162   248   238  18.0 85.07  5.51 3.155  1.92 1.230 100.0   9.2 146.7 310.8 17646 .0137 16.01  0.98 1.740  1.81  1.84  1.26  0.40  0.50  0.10  0.05  0.00  0.00  0.00
 1982 163   249   239  19.8 85.46  5.55 3.155  2.63 0.523 100.0   9.2 146.7 316.0 17646 .0146 16.22  0.98 1.757  1.80  1.83  1.25  0.40  0.49  0.10  0.05  0.00  0.00  0.00
 1982 164   250   240  20.9 85.88  5.59 3.155  3.45     0 100.0   9.2 146.7 321.2 17646 .0155 16.37  0.98 1.774  1.78  1.82  1.24  0.39  0.49  0.10  0.05  0.00  0.00  0.00
 1982 165   251   241  23.9 86.36  5.64 3.155  3.45     0 100.0   9.2 146.7 326.4 17646 .0166 16.50  0.98 1.774  1.77  1.80  1.23  0.39  0.49  0.09  0.05  0.00  0.00  0.00
 1982 166   252   242  22.5 86.81  5.68 3.155  3.45     0 100.0   9.2 146.7 331.5 17646 .0176 16.63  0.98 1.774  1.75  1.79  1.22  0.39  0.48  0.09  0.05  0.00  0.00  0.00
 1982 167   253   243  18.6 87.18  5.72 3.155  3.45     0 100.0   9.2 146.7 336.6 17646 .0180 16.76  0.98 1.774  1.74  1.77  1.21  0.38  0.48  0.09  0.04  0.00  0.00  0.00
 1982 168   254   244  21.1 87.60  5.76 3.155  3.45     0 100.0   9.2 146.7 341.6 17646 .0181 16.90  0.98 1.774  1.73  1.76  1.20  0.38  0.47  0.09  0.04  0.00  0.00  0.00
 1982 169   255   245  21.1 88.02  5.80 3.155  3.45     0 100.0   9.2 146.7 346.6 17646 .0184 17.04  0.98 1.774  1.71  1.75  1.19  0.38  0.47  0.09  0.04  0.00  0.00  0.00
 1982 170   256   246  19.2 88.41  5.84 3.155  3.45     0 100.0   9.2 146.7 351.6 17646 .0186 17.17  0.98 1.774  1.70  1.73  1.18  0.38  0.47  0.09  0.04  0.00  0.00  0.00
 1982 171   257   247  22.8 88.86  5.89 3.155  3.45     0 100.0   9.2 146.7 356.5 17646 .0188 17.31  0.98 1.774  1.69  1.72  1.17  0.37  0.46  0.09  0.04  0.00  0.00  0.00
 1982 172   258   248  22.2 89.31  5.93 3.155  3.45     0 100.0   9.2 146.7 361.4 17646 .0190 17.45  0.98 1.774  1.67  1.70  1.16  0.37  0.46  0.09  0.04  0.00  0.00  0.00
 1982 173   259   249  20.8 89.72  5.97 3.155  3.45     0 100.0   9.2 146.7 366.3 17646 .0194 17.59  0.98 1.774  1.66  1.69  1.15  0.37  0.46  0.09  0.04  0.00  0.00  0.00
 1982 174   260   250  21.7 90.40  6.04 3.155  3.45     0 100.0   9.2 146.7 371.1 17646 .0196 17.73  0.98 1.774  1.64  1.68  1.14  0.36  0.45  0.09  0.04  0.00  0.00  0.00
