*WATER BALANCE OUTPUT FILE

*DSSAT Cropping System Model Ver. 4.5.1.023 -Stub         OCT 13, 2014; 10:45:28
                                                                                
*RUN   1        : DRYLAND  - 0 KG N/HA      CSCER045 KSAS8101    1              
 MODEL          : CSCER045 - Wheat                                              
 EXPERIMENT     : KSAS8101 WH                                                   
 DATA PATH      :                                                               
 TREATMENT  1   : DRYLAND  - 0 KG N/HA      CSCER045                            
  

!     WATER BALANCE PARAMETERS
!     ========================                 --mm--

!     Soil H20 (start) on Year/day 1981/279    162.75
!     Soil H20 (final) on Year/day 1982/174    218.84
!     Effective Irrigation                       0.00
!     Precipitation                            600.30
!     Water added with new mulch                 0.03
!     Drainage                                 117.10
!     Tiledrain flow                             0.00
!     Runoff                                    11.99
!     Mulch evaporation                          0.23
!     Soil Evaporation                         249.78
!     Transpiration                            165.10
!     Potential ET                             582.06

!     Initial mulch water content                0.00
!     Final mulch water content                  0.06

!     Final Balance                            -0.011


*DSSAT Cropping System Model Ver. 4.5.1.023 -Stub         OCT 13, 2014; 10:45:28
                                                                                
*RUN   2        : DRYLAND  - 60 KG N/HA     CSCER045 KSAS8101    2              
 MODEL          : CSCER045 - Wheat                                              
 EXPERIMENT     : KSAS8101 WH                                                   
 DATA PATH      :                                                               
 TREATMENT  2   : DRYLAND  - 60 KG N/HA     CSCER045                            
  

!     WATER BALANCE PARAMETERS
!     ========================                 --mm--

!     Soil H20 (start) on Year/day 1981/279    162.75
!     Soil H20 (final) on Year/day 1982/174    221.43
!     Effective Irrigation                       0.00
!     Precipitation                            600.30
!     Water added with new mulch                 0.04
!     Drainage                                 111.76
!     Tiledrain flow                             0.00
!     Runoff                                    11.96
!     Mulch evaporation                          0.26
!     Soil Evaporation                         232.53
!     Transpiration                            185.10
!     Potential ET                             579.14

!     Initial mulch water content                0.00
!     Final mulch water content                  0.07

!     Final Balance                            -0.014


*DSSAT Cropping System Model Ver. 4.5.1.023 -Stub         OCT 13, 2014; 10:45:28
                                                                                
*RUN   3        : DRYLAND  - 180 KG N/HA SP CSCER045 KSAS8101    3              
 MODEL          : CSCER045 - Wheat                                              
 EXPERIMENT     : KSAS8101 WH                                                   
 DATA PATH      :                                                               
 TREATMENT  3   : DRYLAND  - 180 KG N/HA SP CSCER045                            
  

!     WATER BALANCE PARAMETERS
!     ========================                 --mm--

!     Soil H20 (start) on Year/day 1981/279    162.75
!     Soil H20 (final) on Year/day 1982/174    217.26
!     Effective Irrigation                       0.00
!     Precipitation                            600.30
!     Water added with new mulch                 0.04
!     Drainage                                 110.91
!     Tiledrain flow                             0.00
!     Runoff                                    11.92
!     Mulch evaporation                          0.27
!     Soil Evaporation                         234.41
!     Transpiration                            188.25
!     Potential ET                             578.43

!     Initial mulch water content                0.00
!     Final mulch water content                  0.07

!     Final Balance                            -0.012


*DSSAT Cropping System Model Ver. 4.5.1.023 -Stub         OCT 13, 2014; 10:45:28
                                                                                
*RUN   4        : IRRIGATED - 0 KG N/HA     CSCER045 KSAS8101    4              
 MODEL          : CSCER045 - Wheat                                              
 EXPERIMENT     : KSAS8101 WH                                                   
 DATA PATH      :                                                               
 TREATMENT  4   : IRRIGATED - 0 KG N/HA     CSCER045                            
  

!     WATER BALANCE PARAMETERS
!     ========================                 --mm--

!     Soil H20 (start) on Year/day 1981/279    162.75
!     Soil H20 (final) on Year/day 1982/174    220.26
!     Effective Irrigation                     213.00
!     Precipitation                            600.30
!     Water added with new mulch                 0.03
!     Drainage                                 306.04
!     Tiledrain flow                             0.00
!     Runoff                                    12.51
!     Mulch evaporation                          0.23
!     Soil Evaporation                         279.24
!     Transpiration                            157.75
!     Potential ET                             584.07

!     Initial mulch water content                0.00
!     Final mulch water content                  0.06

!     Final Balance                            -0.011


*DSSAT Cropping System Model Ver. 4.5.1.023 -Stub         OCT 13, 2014; 10:45:28
                                                                                
*RUN   5        : IRRIGATED - 60 KG N/HA    CSCER045 KSAS8101    5              
 MODEL          : CSCER045 - Wheat                                              
 EXPERIMENT     : KSAS8101 WH                                                   
 DATA PATH      :                                                               
 TREATMENT  5   : IRRIGATED - 60 KG N/HA    CSCER045                            
  

!     WATER BALANCE PARAMETERS
!     ========================                 --mm--

!     Soil H20 (start) on Year/day 1981/279    162.75
!     Soil H20 (final) on Year/day 1982/174    220.59
!     Effective Irrigation                     213.00
!     Precipitation                            600.30
!     Water added with new mulch                 0.04
!     Drainage                                 305.96
!     Tiledrain flow                             0.00
!     Runoff                                    12.46
!     Mulch evaporation                          0.26
!     Soil Evaporation                         259.42
!     Transpiration                            177.33
!     Potential ET                             580.96

!     Initial mulch water content                0.00
!     Final mulch water content                  0.07

!     Final Balance                            -0.008


*DSSAT Cropping System Model Ver. 4.5.1.023 -Stub         OCT 13, 2014; 10:45:28
                                                                                
*RUN   6        : IRRIGATED 180 KG N/HA SPL CSCER045 KSAS8101    6              
 MODEL          : CSCER045 - Wheat                                              
 EXPERIMENT     : KSAS8101 WH                                                   
 DATA PATH      :                                                               
 TREATMENT  6   : IRRIGATED 180 KG N/HA SPL CSCER045                            
  

!     WATER BALANCE PARAMETERS
!     ========================                 --mm--

!     Soil H20 (start) on Year/day 1981/279    162.75
!     Soil H20 (final) on Year/day 1982/174    219.00
!     Effective Irrigation                     213.00
!     Precipitation                            600.30
!     Water added with new mulch                 0.04
!     Drainage                                 304.65
!     Tiledrain flow                             0.00
!     Runoff                                    12.45
!     Mulch evaporation                          0.27
!     Soil Evaporation                         249.09
!     Transpiration                            190.57
!     Potential ET                             578.97

!     Initial mulch water content                0.00
!     Final mulch water content                  0.07

!     Final Balance                            -0.014

