*Soil Inorganic Nitrogen daily output file

*DSSAT Cropping System Model Ver. 4.5.1.023 -Stub         OCT 13, 2014; 10:45:28
                                                                                
*RUN   1        : DRYLAND  - 0 KG N/HA      CSCER045 KSAS8101    1              
 MODEL          : CSCER045 - Wheat                                              
 EXPERIMENT     : KSAS8101 WH                                                   
 DATA PATH      :                                                               
 TREATMENT  1   : DRYLAND  - 0 KG N/HA      CSCER045                            
  
!                                                            NO3 (ppm) by soil depth (cm):                                           NH4 (ppm) by soil depth (cm):
!                                                            0-5    5-15   15-30   30-45   45-60   60-90  90-120 120-150 150-180     0-5    5-15   15-30   30-45   45-60   60-90  90-120 120-150 150-180
@YEAR DOY   DAS  NAPC  NI#M    NLCC   NIAD   NITD   NHTD    NI1D    NI2D    NI3D    NI4D    NI5D    NI6D    NI7D    NI8D    NI9D    NH1D    NH2D    NH3D    NH4D    NH5D    NH6D    NH7D    NH8D    NH9D    NMNC    NITC    NDNC    NIMC    AMLC   NNMNC    NUCM
 1981 278     0     0     0     0.0  176.6  116.2   60.5    9.80    9.80    7.30    5.10    5.10    4.70    4.30    4.30    4.30    3.40    3.40    3.20    2.50    2.50    2.20    2.70    2.70    2.70    0.00    0.00    0.00    0.00    0.00    0.00    0.00
 1981 279     1     0     0     0.0  176.7  122.8   53.9   13.24   11.03    7.81    5.46    5.46    4.77    4.37    4.37    4.36    0.00    2.22    2.68    2.14    2.14    2.12    2.63    2.63    2.64    0.11    6.67    0.00    0.03    0.00    0.09    0.00
 1981 280     2     0     0     0.0  177.0  126.4   50.6   13.39   11.70    8.19    5.75    5.75    4.84    4.44    4.43    4.42    0.12    1.62    2.28    1.85    1.86    2.06    2.56    2.57    2.59    0.39   10.24    0.00    0.04    0.00    0.35    0.00
 1981 281     3     0     0     0.0  177.3  129.3   48.0   13.68   12.11    8.48    5.97    5.97    4.90    4.51    4.49    4.48    0.13    1.34    1.98    1.63    1.64    2.00    2.50    2.52    2.54    0.76   13.13    0.00    0.05    0.00    0.71    0.00
 1981 282     4     0     0     0.0  177.7  131.7   46.1   13.98   12.40    8.71    6.15    6.16    4.95    4.56    4.55    4.53    0.15    1.21    1.75    1.45    1.47    1.94    2.44    2.47    2.49    1.17   15.51    0.00    0.05    0.00    1.12    0.00
 1981 283     5     0     0     0.0  178.2  133.7   44.5   14.26   12.61    8.88    6.29    6.30    5.00    4.62    4.60    4.58    0.15    1.16    1.58    1.31    1.33    1.90    2.40    2.42    2.45    1.58   17.51    0.00    0.05    0.00    1.54    0.00
 1981 284     6     0     0     0.0  178.6  135.4   43.2   14.54   12.77    9.02    6.41    6.42    5.04    4.66    4.65    4.62    0.15    1.14    1.43    1.20    1.21    1.86    2.35    2.38    2.40    1.98   19.24    0.00    0.05    0.00    1.93    0.00
 1981 285     7     0     0     0.0  178.9  137.0   41.9   13.26   13.70    9.14    6.51    6.53    5.09    4.71    4.69    4.67    0.14    1.14    1.31    1.10    1.11    1.82    2.31    2.33    2.37    2.37   20.84    0.00    0.05    0.00    2.33    0.00
 1981 286     8     0     0     0.0  179.4  138.5   40.9   13.16   14.00    9.25    6.60    6.63    5.13    4.76    4.74    4.71    0.30    1.16    1.20    1.02    1.02    1.78    2.27    2.29    2.33    2.87   22.35    0.00    0.05    0.00    2.82    0.00
 1981 287     9     0     0     0.0  180.0  140.1   39.9   12.74   14.66    9.35    6.68    6.72    5.16    4.80    4.78    4.75    0.32    1.19    1.10    0.93    0.93    1.74    2.23    2.25    2.29    3.43   23.97    0.00    0.05    0.00    3.38    0.00
 1981 288    10     0     0     0.0  180.6  141.7   38.9   14.04   14.69    9.42    6.72    6.79    5.18    4.83    4.81    4.79    0.47    1.24    1.00    0.85    0.85    1.71    2.18    2.21    2.25    4.06   25.54    0.00    0.05    0.00    4.01    0.00
 1981 289    11     0     1     0.0  181.3  143.4   37.9   15.63   14.67    9.49    6.77    6.85    5.20    4.86    4.85    4.82    0.38    1.28    0.91    0.78    0.78    1.67    2.14    2.17    2.21    4.70   27.20    0.00    0.05    0.00    4.66    0.00
 1981 290    12     0     1     0.0  181.9  144.9   37.0    8.26   14.24   12.57    6.84    6.92    5.24    4.91    4.89    4.86    0.35    1.32    0.83    0.72    0.72    1.64    2.10    2.13    2.17    5.35   28.77    0.00    0.05    0.00    5.30    0.00
 1981 291    13     0     1     0.0  182.6  146.2   36.4   10.42   13.52   12.89    6.83    6.95    5.24    4.92    4.91    4.89    0.53    1.52    0.76    0.66    0.66    1.60    2.07    2.09    2.13    6.03   30.03    0.00    0.05    0.00    5.98    0.00
 1981 292    14     0     1     0.0  183.3  147.7   35.6   12.63   13.51   12.85    6.83    6.97    5.25    4.94    4.93    4.91    0.41    1.55    0.71    0.61    0.61    1.57    2.03    2.06    2.10    6.69   31.53    0.00    0.05    0.00    6.65    0.00
 1981 293    15     0     1     0.0  183.9  149.1   34.8   13.12   13.75   12.90    6.88    7.03    5.28    4.99    4.97    4.95    0.36    1.57    0.65    0.57    0.57    1.54    2.00    2.02    2.06    7.36   32.98    0.00    0.05    0.00    7.31    0.00
 1981 294    16     0     1     0.0  184.7  150.6   34.0   13.61   14.01   12.95    6.93    7.08    5.32    5.03    5.02    4.99    0.32    1.59    0.61    0.52    0.52    1.51    1.96    1.98    2.03    8.08   34.48    0.00    0.05    0.00    8.04    0.00
 1981 295    17     0     1     0.0  185.4  152.1   33.3   14.07   14.28   13.00    6.98    7.13    5.36    5.07    5.06    5.03    0.29    1.61    0.56    0.48    0.48    1.48    1.92    1.95    1.99    8.81   35.95    0.00    0.05    0.00    8.76    0.00
 1981 296    18     0     1     0.0  186.0  153.4   32.6   14.48   14.51   13.04    7.02    7.17    5.39    5.11    5.10    5.07    0.26    1.62    0.53    0.45    0.45    1.46    1.89    1.91    1.96    9.44   37.24    0.00    0.05    0.00    9.39    0.00
 1981 297    19     0     1     0.0  186.6  154.6   32.0   14.86   14.72   13.07    7.05    7.21    5.42    5.15    5.14    5.11    0.24    1.62    0.50    0.43    0.43    1.43    1.86    1.88    1.93   10.00   38.42    0.00    0.05    0.00    9.96    0.00
 1981 298    20     0     1     0.0  187.0  155.6   31.4   15.19   14.88   13.09    7.08    7.24    5.45    5.18    5.17    5.14    0.20    1.60    0.48    0.41    0.40    1.41    1.84    1.85    1.90   10.45   39.43    0.00    0.05    0.00   10.40    0.00
 1981 299    21     0     1     0.0  187.4  156.4   30.9   15.49   15.00   13.11    7.10    7.27    5.47    5.21    5.20    5.18    0.21    1.56    0.46    0.39    0.39    1.39    1.81    1.83    1.87   10.81   40.29    0.00    0.05    0.00   10.76    0.00
 1981 300    22     0     1     0.0  187.7  157.3   30.4   15.79   15.10   13.12    7.12    7.29    5.49    5.23    5.23    5.21    0.21    1.51    0.44    0.37    0.37    1.38    1.79    1.80    1.85   11.13   41.10    0.00    0.05    0.00   11.09    0.04
 1981 301    23     0     1     0.0  188.1  158.1   30.0   16.08   15.19   13.13    7.14    7.31    5.52    5.26    5.26    5.24    0.22    1.49    0.43    0.36    0.35    1.36    1.77    1.78    1.82   11.54   41.98    0.00    0.05    0.00   11.49    0.14
 1981 302    24     0     1     0.0  188.5  159.0   29.5   16.39   15.30   13.15    7.16    7.34    5.54    5.30    5.29    5.27    0.23    1.49    0.41    0.34    0.34    1.34    1.74    1.75    1.79   12.06   42.98    0.00    0.05    0.00   12.02    0.27
 1981 303    25     0     1     0.0  189.0  160.1   29.0   16.75   15.43   13.18    7.19    7.37    5.58    5.33    5.33    5.31    0.23    1.49    0.39    0.32    0.32    1.31    1.71    1.72    1.76   12.71   44.14    0.00    0.05    0.00   12.66    0.43
 1981 304    26     0     1     0.0  189.6  161.2   28.4   17.12   15.58   13.20    7.22    7.40    5.61    5.37    5.37    5.34    0.21    1.49    0.37    0.30    0.30    1.29    1.68    1.69    1.73   13.42   45.38    0.00    0.05    0.00   13.37    0.56
 1981 305    27     0     1     0.0  190.2  162.3   27.9    2.24    7.94   10.25   12.67    7.25    6.83    7.71    5.40    5.38    0.22    1.49    0.36    0.29    0.28    1.26    1.65    1.66    1.70   14.15   46.62    0.00    0.05    0.00   14.10    0.69
 1981 306    28     0     1     0.0  190.8  162.9   27.9    2.13    7.32    9.94   11.85    7.81    6.51    8.04    5.95    5.41    0.44    1.68    0.37    0.29    0.30    1.25    1.62    1.63    1.67   14.90   47.34    0.00    0.05    0.00   14.85    0.79
 1981 307    29     0     1     0.0  191.3  163.5   27.9    2.32    7.00    9.68   11.17    8.06    6.28    7.95    6.76    5.44    0.59    1.82    0.38    0.30    0.30    1.24    1.60    1.61    1.65   15.57   48.04    0.00    0.05    0.00   15.52    0.92
 1981 308    30     0     1     0.0  191.9  164.1   27.7    1.79    5.21    9.05    9.81    8.69    6.35    7.87    7.67    5.93    0.66    1.91    0.38    0.31    0.31    1.23    1.59    1.58    1.62   16.20   48.76    0.00    0.05    0.00   16.16    1.03
 1981 309    31     0     1     0.0  192.3  164.6   27.7    1.79    4.91    8.66    9.26    8.74    6.07    7.52    7.90    6.92    0.71    1.99    0.39    0.31    0.32    1.22    1.57    1.56    1.60   16.73   49.35    0.00    0.05    0.00   16.68    1.15
 1981 310    32     0     1     8.6  183.9  156.4   27.5    2.54    4.87    8.34    8.48    8.31    5.64    6.74    7.34    7.17    0.73    2.05    0.39    0.32    0.33    1.22    1.56    1.55    1.58   17.26   49.97    0.10    0.05    0.00   17.22    1.22
 1981 311    33     0     1    10.8  182.2  155.2   27.1    3.60    5.21    8.35    8.28    8.15    5.51    6.51    7.28    7.19    0.52    1.96    0.40    0.32    0.33    1.21    1.55    1.53    1.55   17.82   50.98    0.13    0.05    0.00   17.77    1.34
 1981 312    34     0     1    12.0  181.5  154.8   26.6    2.27    4.18    7.68    7.64    8.63    5.83    6.65    7.39    7.41    0.42    1.87    0.39    0.33    0.33    1.20    1.53    1.51    1.53   18.40   51.98    0.14    0.05    0.00   18.36    1.40
 1981 313    35     0     1    15.0  178.9  152.3   26.6    1.50    3.58    7.02    6.88    8.22    5.86    6.67    7.55    7.68    0.52    1.95    0.39    0.33    0.34    1.19    1.52    1.49    1.51   18.92   52.52    0.24    0.05    0.00   18.88    1.42
 1981 314    36     0     1    27.4  166.8  140.3   26.6    1.96    3.59    6.65    6.28    7.57    5.32    5.95    6.85    7.22    0.58    2.02    0.40    0.34    0.35    1.18    1.50    1.48    1.50   19.40   53.04    0.35    0.05    0.00   19.36    1.48
 1981 315    37     0     1    30.3  164.3  137.9   26.3    2.68    3.76    6.58    6.13    7.37    5.14    5.72    6.74    7.17    0.45    2.05    0.40    0.34    0.35    1.17    1.49    1.46    1.48   19.89   53.74    0.39    0.05    0.00   19.85    1.57
 1981 316    38     0     1    30.3  164.6  138.7   25.9    3.37    4.06    6.58    6.12    7.36    5.14    5.72    6.74    7.18    0.38    1.94    0.39    0.34    0.35    1.16    1.48    1.45    1.46   20.37   54.60    0.40    0.05    0.00   20.33    1.71
 1981 317    39     0     1    30.3  165.0  139.4   25.5    4.10    4.31    6.56    6.12    7.35    5.15    5.73    6.74    7.18    0.33    1.83    0.38    0.34    0.36    1.16    1.46    1.43    1.45   20.86   55.45    0.41    0.05    0.00   20.81    1.86
 1981 318    40     0     1    30.3  165.3  140.2   25.2    4.85    4.54    6.55    6.12    7.36    5.15    5.74    6.74    7.19    0.31    1.74    0.37    0.33    0.35    1.15    1.45    1.42    1.43   21.37   56.33    0.42    0.05    0.00   21.33    2.02
 1981 319    41     0     1    30.3  165.8  141.0   24.8    5.51    4.77    6.54    6.13    7.37    5.16    5.75    6.75    7.20    0.30    1.66    0.36    0.32    0.34    1.14    1.43    1.40    1.41   21.97   57.29    0.43    0.05    0.00   21.93    2.22
 1981 320    42     0     1    30.3  166.2  141.8   24.4    6.27    4.99    6.51    6.13    7.37    5.18    5.76    6.76    7.21    0.29    1.58    0.36    0.32    0.33    1.12    1.41    1.38    1.39   22.62   58.31    0.43    0.05    0.00   22.58    2.48
 1981 321    43     0     1    30.3  166.6  142.7   24.0    6.52    5.20    6.48    6.15    7.40    5.20    5.79    6.79    7.23    0.26    1.50    0.35    0.31    0.33    1.11    1.39    1.36    1.37   23.32   59.38    0.44    0.05    0.00   23.28    2.68
 1981 322    44     0     1    30.3  167.1  143.6   23.6    6.79    5.42    6.46    6.17    7.43    5.23    5.82    6.81    7.26    0.23    1.44    0.34    0.31    0.32    1.10    1.38    1.34    1.35   24.03   60.45    0.45    0.05    0.00   23.99    2.89
 1981 323    45     0     1    30.3  167.6  144.4   23.2    7.04    5.64    6.44    6.19    7.46    5.25    5.85    6.84    7.29    0.20    1.39    0.33    0.30    0.31    1.09    1.36    1.33    1.33   24.73   61.50    0.45    0.05    0.00   24.69    2.91
 1981 324    46     0     1    30.3  168.2  145.3   22.9    7.23    5.87    6.46    6.22    7.49    5.27    5.88    6.86    7.31    0.19    1.36    0.33    0.30    0.31    1.07    1.34    1.31    1.32   25.34   62.41    0.46    0.05    0.00   25.29    2.91
 1981 325    47     0     1    30.3  168.7  146.0   22.6    7.43    6.04    6.48    6.23    7.51    5.29    5.90    6.88    7.33    0.16    1.33    0.32    0.30    0.31    1.07    1.33    1.29    1.30   25.81   63.15    0.46    0.05    0.00   25.76    2.94
 1981 326    48     0     1    30.3  169.0  146.6   22.3    7.60    6.16    6.48    6.25    7.53    5.31    5.92    6.90    7.35    0.14    1.28    0.32    0.29    0.30    1.06    1.31    1.28    1.29   26.15   63.78    0.47    0.05    0.00   26.11    3.03
 1981 327    49     0     1    30.3  169.2  147.1   22.1    7.74    6.24    6.47    6.26    7.54    5.33    5.94    6.92    7.37    0.11    1.22    0.31    0.29    0.30    1.05    1.30    1.27    1.27   26.43   64.33    0.47    0.05    0.00   26.39    3.20
 1981 328    50     0     1    30.3  169.2  147.4   21.8    7.88    6.27    6.44    6.27    7.56    5.34    5.96    6.94    7.39    0.09    1.15    0.30    0.29    0.29    1.04    1.29    1.26    1.26   26.67   64.83    0.48    0.05    0.00   26.63    3.28
 1981 329    51     0     1    30.3  169.4  147.9   21.5    8.00    6.33    6.43    6.27    7.57    5.35    5.97    6.95    7.41    0.08    1.10    0.30    0.28    0.29    1.04    1.28    1.25    1.25   26.94   65.34    0.48    0.05    0.00   26.89    3.48
 1981 330    52     0     1    30.3  169.6  148.3   21.3    8.13    6.37    6.39    6.28    7.59    5.37    5.99    6.97    7.43    0.08    1.06    0.29    0.28    0.29    1.03    1.27    1.23    1.24   27.30   65.91    0.49    0.05    0.00   27.25    3.57
 1981 331    53     0     1    30.3  169.8  148.8   21.1    8.26    6.45    6.38    6.29    7.60    5.39    6.01    6.99    7.45    0.08    1.05    0.29    0.28    0.29    1.02    1.26    1.22    1.22   27.67   66.49    0.49    0.05    0.00   27.63    3.57
 1981 332    54     0     1    30.3  170.1  149.3   20.9    8.38    6.54    6.39    6.31    7.62    5.40    6.03    7.01    7.47    0.07    1.02    0.29    0.28    0.28    1.01    1.25    1.21    1.21   27.98   67.01    0.50    0.05    0.00   27.93    3.58
 1981 333    55     0     1    30.3  170.4  149.7   20.7    8.50    6.60    6.40    6.32    7.63    5.42    6.05    7.02    7.48    0.06    0.98    0.28    0.27    0.28    1.01    1.24    1.20    1.20   28.21   67.47    0.50    0.05    0.00   28.17    3.59
 1981 334    56     0     1    30.3  170.5  150.1   20.4    2.13    8.20    7.40    6.45    7.65    5.43    6.07    7.04    7.50    0.05    0.93    0.28    0.27    0.28    1.00    1.23    1.19    1.19   28.41   67.89    0.51    0.05    0.00   28.36    3.63
 1981 335    57     0     1    31.3  169.7  149.4   20.3    1.08    5.81    7.36    6.37    8.10    5.67    6.22    7.10    7.58    0.05    0.92    0.28    0.26    0.27    0.99    1.22    1.18    1.18   28.55   68.19    0.51    0.05    0.00   28.50    3.63
 1981 336    58     0     1    40.0  161.0  140.9   20.1    1.13    5.46    6.99    5.84    7.39    5.25    5.78    6.79    7.40    0.05    0.90    0.27    0.26    0.27    0.99    1.21    1.17    1.17   28.63   68.42    0.52    0.05    0.00   28.59    3.63
 1981 337    59     0     1    42.0  159.1  139.2   20.0    1.54    5.40    6.86    5.67    7.15    5.18    5.71    6.73    7.35    0.04    0.88    0.27    0.26    0.27    0.98    1.20    1.16    1.16   28.74   68.68    0.53    0.05    0.00   28.69    3.67
 1981 338    60     0     1    42.0  159.2  139.4   19.8    2.05    5.43    6.84    5.67    7.14    5.18    5.71    6.73    7.35    0.04    0.83    0.27    0.26    0.28    0.98    1.19    1.16    1.15   28.89   69.00    0.53    0.05    0.00   28.84    3.70
 1981 339    61     0     1    42.0  159.4  139.7   19.6    2.58    5.45    6.82    5.67    7.14    5.18    5.71    6.73    7.35    0.05    0.79    0.27    0.26    0.28    0.97    1.19    1.15    1.14   29.05   69.34    0.54    0.05    0.00   29.00    3.71
 1981 340    62     0     1    42.0  159.5  140.1   19.4    2.79    5.50    6.82    5.67    7.14    5.19    5.72    6.73    7.36    0.05    0.75    0.26    0.26    0.28    0.97    1.18    1.14    1.13   29.21   69.67    0.55    0.05    0.00   29.17    3.83
 1981 341    63     0     1    42.0  159.6  140.3   19.3    3.23    5.50    6.79    5.67    7.14    5.19    5.72    6.74    7.36    0.09    0.74    0.26    0.26    0.28    0.96    1.17    1.13    1.12   29.46   70.04    0.56    0.05    0.00   29.42    3.99
 1981 342    64     0     1    42.0  159.8  140.6   19.2    3.86    5.49    6.74    5.67    7.14    5.19    5.73    6.73    7.36    0.14    0.75    0.25    0.26    0.28    0.96    1.16    1.12    1.11   29.80   70.46    0.57    0.05    0.00   29.75    3.99
 1981 343    65     0     1    42.0  160.1  141.0   19.1    4.37    5.53    6.73    5.67    7.15    5.20    5.73    6.74    7.37    0.17    0.76    0.25    0.26    0.28    0.95    1.15    1.11    1.10   30.13   70.90    0.57    0.05    0.00   30.08    3.99
 1981 344    66     0     1    42.0  160.4  141.4   19.0    4.92    5.57    6.73    5.68    7.15    5.20    5.74    6.74    7.37    0.18    0.77    0.25    0.26    0.27    0.95    1.14    1.10    1.09   30.43   71.33    0.57    0.05    0.00   30.39    3.99
 1981 345    67     0     1    42.0  160.7  141.8   18.8    5.05    5.65    6.74    5.69    7.16    5.21    5.75    6.75    7.38    0.16    0.76    0.24    0.25    0.27    0.94    1.14    1.09    1.08   30.68   71.74    0.58    0.05    0.00   30.64    3.99
 1981 346    68     0     1    42.0  160.8  142.2   18.6    5.17    5.70    6.74    5.70    7.17    5.22    5.76    6.76    7.39    0.13    0.73    0.24    0.25    0.27    0.94    1.13    1.08    1.07   30.85   72.10    0.58    0.05    0.00   30.80    3.99
 1981 347    69     0     1    42.0  160.9  142.5   18.4    5.27    5.75    6.75    5.71    7.18    5.23    5.77    6.77    7.41    0.09    0.67    0.23    0.24    0.26    0.93    1.12    1.08    1.06   30.93   72.41    0.58    0.05    0.00   30.88    3.99
 1981 348    70     0     1    42.0  161.0  142.8   18.2    5.35    5.79    6.76    5.72    7.19    5.24    5.78    6.78    7.42    0.07    0.63    0.22    0.24    0.25    0.93    1.11    1.07    1.06   30.99   72.68    0.59    0.05    0.00   30.95    3.99
 1981 349    71     0     1    42.0  161.0  143.0   18.0    5.43    5.81    6.76    5.72    7.20    5.25    5.79    6.79    7.43    0.05    0.59    0.22    0.23    0.25    0.92    1.11    1.06    1.05   31.05   72.94    0.59    0.05    0.00   31.00    3.99
 1981 350    72     0     1    42.0  161.1  143.3   17.8    5.47    5.84    6.76    5.73    7.21    5.25    5.80    6.80    7.44    0.04    0.55    0.21    0.22    0.24    0.91    1.10    1.06    1.04   31.11   73.19    0.59    0.05    0.00   31.06    3.99
 1981 351    73     0     1    42.0  161.1  143.5   17.6    5.48    5.87    6.77    5.73    7.21    5.26    5.81    6.81    7.45    0.03    0.52    0.21    0.22    0.23    0.91    1.09    1.05    1.03   31.15   73.42    0.60    0.05    0.00   31.10    3.99
 1981 352    74     0     1    42.0  161.1  143.7   17.5    5.49    5.89    6.77    5.74    7.22    5.27    5.82    6.82    7.46    0.03    0.49    0.20    0.21    0.23    0.90    1.08    1.04    1.03   31.18   73.61    0.60    0.05    0.00   31.13    3.99
 1981 353    75     0     1    42.0  161.1  143.8   17.3    5.50    5.91    6.78    5.74    7.22    5.27    5.83    6.83    7.47    0.02    0.48    0.20    0.21    0.22    0.90    1.08    1.04    1.02   31.19   73.76    0.60    0.05    0.00   31.14    3.99
 1981 354    76     0     1    42.0  161.1  144.0   17.2    5.51    5.92    6.78    5.75    7.23    5.28    5.84    6.83    7.47    0.02    0.46    0.19    0.20    0.22    0.89    1.07    1.03    1.01   31.20   73.90    0.61    0.05    0.00   31.15    3.99
 1981 355    77     0     1    42.0  161.1  144.1   17.1    5.08    6.15    6.78    5.75    7.23    5.28    5.84    6.84    7.48    0.02    0.45    0.19    0.20    0.22    0.89    1.07    1.02    1.01   31.20   74.03    0.61    0.05    0.00   31.16    3.99
 1981 356    78     0     1    42.0  161.2  144.2   16.9    4.94    6.26    6.78    5.75    7.23    5.29    5.85    6.85    7.49    0.02    0.44    0.19    0.20    0.21    0.88    1.06    1.02    1.00   31.21   74.17    0.61    0.05    0.00   31.17    3.99
 1981 357    79     0     1    42.0  161.2  144.4   16.8    4.94    6.30    6.78    5.75    7.24    5.29    5.85    6.85    7.49    0.02    0.42    0.19    0.19    0.21    0.88    1.05    1.01    1.00   31.22   74.32    0.61    0.05    0.00   31.18    3.99
 1981 358    80     0     1    42.0  161.2  144.5   16.6    5.46    6.26    6.77    5.75    7.23    5.29    5.85    6.85    7.49    0.01    0.40    0.18    0.19    0.20    0.87    1.05    1.00    0.99   31.25   74.49    0.61    0.05    0.00   31.20    3.99
 1981 359    81     0     1    42.0  161.2  144.7   16.5    5.56    6.25    6.77    5.76    7.24    5.30    5.86    6.86    7.50    0.01    0.38    0.18    0.18    0.20    0.86    1.04    1.00    0.98   31.29   74.69    0.62    0.05    0.00   31.24    3.99
 1981 360    82     0     1    42.0  161.3  144.9   16.3    5.65    6.24    6.77    5.76    7.24    5.30    5.87    6.86    7.51    0.01    0.35    0.17    0.18    0.19    0.86    1.03    0.99    0.98   31.34   74.89    0.62    0.05    0.00   31.29    3.99
 1981 361    83     0     1    42.0  161.3  145.1   16.2    5.72    6.25    6.77    5.76    7.25    5.31    5.88    6.87    7.52    0.01    0.33    0.17    0.17    0.19    0.85    1.03    0.99    0.97   31.39   75.09    0.62    0.05    0.00   31.34    3.99
 1981 362    84     0     1    42.0  161.4  145.3   16.0    5.73    6.26    6.77    5.77    7.26    5.32    5.89    6.88    7.53    0.00    0.31    0.16    0.17    0.18    0.85    1.02    0.98    0.96   31.43   75.28    0.62    0.05    0.00   31.38    3.99
 1981 363    85     0     1    42.0  161.4  145.5   15.9    5.76    6.27    6.78    5.77    7.26    5.33    5.89    6.89    7.54    0.00    0.29    0.16    0.16    0.18    0.84    1.01    0.97    0.96   31.46   75.45    0.63    0.05    0.00   31.41    3.99
 1981 364    86     0     1    42.0  161.4  145.7   15.8    5.86    6.25    6.77    5.78    7.27    5.33    5.90    6.90    7.55    0.00    0.28    0.15    0.16    0.17    0.83    1.01    0.97    0.95   31.49   75.62    0.63    0.05    0.00   31.44    3.99
 1981 365    87     0     1    42.0  161.4  145.8   15.6    5.95    6.24    6.77    5.78    7.27    5.34    5.91    6.91    7.56    0.00    0.26    0.15    0.16    0.17    0.83    1.00    0.96    0.94   31.52   75.78    0.63    0.05    0.00   31.47    3.99
 1982 001    88     0     1    42.0  161.5  146.0   15.5    6.04    6.22    6.77    5.78    7.27    5.34    5.92    6.91    7.57    0.00    0.25    0.14    0.15    0.16    0.82    0.99    0.96    0.94   31.55   75.94    0.63    0.05    0.00   31.50    3.99
 1982 002    89     0     1    42.0  161.5  146.1   15.4    6.05    6.23    6.77    5.78    7.28    5.35    5.93    6.92    7.57    0.00    0.23    0.14    0.15    0.16    0.82    0.99    0.95    0.93   31.58   76.10    0.63    0.05    0.00   31.53    3.99
 1982 003    90     0     1    42.0  161.5  146.3   15.2    6.07    6.24    6.78    5.79    7.28    5.36    5.93    6.93    7.58    0.00    0.22    0.14    0.14    0.15    0.81    0.98    0.94    0.93   31.61   76.27    0.64    0.05    0.00   31.57    3.99
 1982 004    91     0     1    42.0  161.6  146.4   15.1    4.98    6.80    6.78    5.79    7.29    5.36    5.94    6.94    7.59    0.00    0.21    0.13    0.14    0.15    0.81    0.98    0.94    0.92   31.64   76.42    0.64    0.05    0.00   31.59    3.99
 1982 005    92     0     1    42.0  161.6  146.6   15.0    4.89    6.75    6.85    5.79    7.29    5.37    5.95    6.94    7.60    0.00    0.20    0.13    0.14    0.14    0.80    0.97    0.93    0.92   31.66   76.55    0.64    0.05    0.00   31.61    3.99
 1982 006    93     0     1    42.0  161.6  146.7   14.9    5.45    6.68    6.83    5.79    7.28    5.36    5.94    6.94    7.59    0.00    0.19    0.13    0.13    0.14    0.79    0.96    0.93    0.91   31.68   76.68    0.64    0.05    0.00   31.63    3.99
 1982 007    94     0     1    42.0  161.6  146.8   14.8    5.45    6.69    6.84    5.79    7.29    5.37    5.95    6.94    7.60    0.00    0.19    0.13    0.13    0.14    0.79    0.96    0.92    0.90   31.69   76.81    0.64    0.05    0.00   31.64    3.99
 1982 008    95     0     1    42.0  161.6  146.9   14.7    5.46    6.69    6.84    5.79    7.29    5.37    5.96    6.95    7.61    0.00    0.18    0.12    0.13    0.13    0.78    0.95    0.92    0.90   31.70   76.92    0.65    0.05    0.00   31.65    3.99
 1982 009    96     0     1    42.0  161.6  147.1   14.6    5.56    6.67    6.83    5.80    7.29    5.38    5.96    6.96    7.62    0.00    0.17    0.12    0.13    0.13    0.78    0.95    0.91    0.89   31.71   77.03    0.65    0.05    0.00   31.66    3.99
 1982 010    97     0     1    42.0  161.6  147.2   14.5    5.58    6.67    6.84    5.80    7.29    5.38    5.97    6.96    7.62    0.00    0.17    0.12    0.12    0.13    0.78    0.94    0.90    0.89   31.71   77.14    0.65    0.05    0.00   31.67    3.99
 1982 011    98     0     1    42.0  161.6  147.3   14.4    5.58    6.67    6.84    5.80    7.30    5.39    5.97    6.97    7.63    0.00    0.16    0.12    0.12    0.13    0.77    0.94    0.90    0.88   31.72   77.23    0.65    0.05    0.00   31.67    3.99
 1982 012    99     0     1    42.0  161.6  147.3   14.3    5.59    6.67    6.84    5.80    7.30    5.39    5.98    6.97    7.63    0.00    0.16    0.12    0.12    0.12    0.77    0.93    0.89    0.88   31.72   77.32    0.65    0.05    0.00   31.67    3.99
 1982 013   100     0     1    42.0  161.6  147.4   14.2    5.59    6.68    6.84    5.80    7.30    5.39    5.98    6.98    7.64    0.00    0.15    0.11    0.12    0.12    0.76    0.93    0.89    0.87   31.72   77.41    0.65    0.05    0.00   31.67    3.99
 1982 014   101     0     1    42.0  161.6  147.5   14.1    5.21    6.80    6.88    5.80    7.30    5.40    5.99    6.98    7.65    0.00    0.15    0.11    0.12    0.12    0.76    0.92    0.88    0.87   31.72   77.49    0.65    0.05    0.00   31.67    3.99
 1982 015   102     0     1    42.0  161.6  147.6   14.0    5.31    6.77    6.88    5.80    7.30    5.40    5.99    6.99    7.65    0.00    0.15    0.11    0.12    0.12    0.76    0.92    0.88    0.86   31.72   77.57    0.65    0.05    0.00   31.67    3.99
 1982 016   103     0     1    42.0  161.6  147.7   13.9    5.67    6.73    6.87    5.80    7.30    5.40    5.99    6.98    7.65    0.00    0.14    0.11    0.11    0.12    0.75    0.91    0.87    0.86   31.72   77.66    0.65    0.05    0.00   31.68    3.99
 1982 017   104     0     1    42.0  161.6  147.8   13.9    5.68    6.73    6.87    5.80    7.30    5.40    5.99    6.99    7.65    0.00    0.14    0.11    0.11    0.12    0.75    0.91    0.87    0.85   31.73   77.76    0.65    0.05    0.00   31.68    3.99
 1982 018   105     0     1    42.0  161.6  147.9   13.8    5.70    6.73    6.87    5.80    7.30    5.41    6.00    6.99    7.66    0.00    0.13    0.11    0.11    0.11    0.75    0.90    0.86    0.84   31.73   77.85    0.65    0.05    0.00   31.68    3.99
 1982 019   106     0     1    42.0  161.6  148.0   13.7    5.80    6.70    6.87    5.80    7.30    5.41    6.00    7.00    7.67    0.00    0.13    0.10    0.11    0.11    0.74    0.90    0.86    0.84   31.74   77.96    0.65    0.05    0.00   31.69    3.99
 1982 020   107     0     1    42.0  161.7  148.1   13.6    5.90    6.67    6.86    5.81    7.31    5.41    6.01    7.01    7.67    0.00    0.12    0.10    0.11    0.11    0.74    0.89    0.85    0.83   31.75   78.07    0.65    0.05    0.00   31.70    3.99
 1982 021   108     0     1    42.0  161.7  148.2   13.5    5.91    6.67    6.87    5.81    7.31    5.42    6.02    7.01    7.68    0.00    0.12    0.10    0.10    0.11    0.73    0.89    0.85    0.83   31.76   78.18    0.65    0.05    0.00   31.71    3.99
 1982 022   109     0     1    42.0  161.7  148.3   13.4    5.91    6.68    6.87    5.81    7.31    5.42    6.02    7.02    7.69    0.00    0.11    0.10    0.10    0.10    0.73    0.88    0.84    0.82   31.77   78.29    0.65    0.05    0.00   31.72    3.99
 1982 023   110     0     1    42.0  161.7  148.4   13.3    5.93    6.67    6.87    5.81    7.31    5.43    6.03    7.02    7.69    0.00    0.11    0.10    0.10    0.10    0.72    0.87    0.84    0.82   31.78   78.40    0.65    0.05    0.00   31.74    3.99
 1982 024   111     0     1    42.0  161.7  148.5   13.2    5.95    6.68    6.87    5.81    7.31    5.43    6.03    7.03    7.70    0.00    0.10    0.09    0.10    0.10    0.72    0.87    0.83    0.81   31.79   78.50    0.65    0.05    0.00   31.74    3.99
 1982 025   112     0     1    42.0  161.7  148.6   13.1    4.51    6.88    7.22    5.81    7.32    5.44    6.04    7.03    7.70    0.00    0.10    0.09    0.10    0.10    0.72    0.86    0.83    0.81   31.79   78.58    0.65    0.05    0.00   31.75    3.99
 1982 026   113     0     1    42.0  161.7  148.7   13.0    3.78    6.36    7.55    6.07    7.42    5.43    6.03    7.02    7.69    0.00    0.10    0.09    0.09    0.09    0.71    0.86    0.82    0.80   31.80   78.67    0.65    0.05    0.00   31.75    3.99
 1982 027   114     0     1    42.7  161.1  148.2   12.9    4.25    6.03    7.37    5.94    7.42    5.46    6.08    7.00    7.68    0.00    0.09    0.09    0.09    0.09    0.71    0.85    0.82    0.80   31.80   78.77    0.65    0.05    0.00   31.76    3.99
 1982 028   115     0     1    42.7  161.1  148.3   12.8    4.92    5.98    7.34    5.93    7.41    5.45    6.07    6.99    7.67    0.00    0.09    0.09    0.09    0.09    0.70    0.85    0.81    0.79   31.82   78.87    0.65    0.05    0.00   31.77    3.99
 1982 029   116     0     1    42.7  161.1  148.4   12.7    5.46    5.95    7.32    5.93    7.41    5.45    6.06    6.98    7.66    0.00    0.09    0.09    0.09    0.09    0.70    0.84    0.81    0.79   31.84   79.00    0.65    0.05    0.00   31.80    3.99
 1982 030   117     0     1    42.7  161.2  148.5   12.7    4.20    6.08    7.46    6.00    7.54    5.45    6.07    6.99    7.67    0.01    0.09    0.08    0.09    0.09    0.69    0.84    0.80    0.79   31.92   79.14    0.65    0.05    0.00   31.87    3.99
 1982 031   118     0     1    43.9  160.0  147.4   12.6    4.16    5.85    7.33    5.90    7.43    5.43    6.05    6.97    7.68    0.02    0.10    0.08    0.09    0.09    0.69    0.83    0.80    0.78   31.99   79.26    0.65    0.05    0.00   31.94    3.99
 1982 032   119     0     1    44.4  159.5  147.0   12.5    4.13    5.76    7.32    5.87    7.39    5.41    6.03    6.96    7.67    0.01    0.10    0.08    0.09    0.09    0.68    0.83    0.79    0.78   32.01   79.37    0.65    0.05    0.00   31.96    3.99
 1982 033   120     0     1    44.4  159.5  147.1   12.4    4.28    5.75    7.31    5.87    7.39    5.41    6.04    6.96    7.68    0.01    0.09    0.08    0.08    0.09    0.68    0.82    0.79    0.77   32.02   79.46    0.65    0.05    0.00   31.97    3.99
 1982 034   121     0     1    44.4  159.5  147.2   12.4    4.33    5.75    7.31    5.87    7.39    5.42    6.04    6.96    7.68    0.01    0.09    0.08    0.08    0.08    0.68    0.82    0.78    0.77   32.02   79.55    0.65    0.05    0.00   31.98    3.99
 1982 035   122     0     1    44.4  159.5  147.3   12.3    4.36    5.75    7.31    5.87    7.39    5.42    6.04    6.97    7.69    0.01    0.09    0.08    0.08    0.08    0.67    0.81    0.78    0.76   32.02   79.63    0.65    0.05    0.00   31.98    3.99
 1982 036   123     0     1    44.4  159.5  147.3   12.2    4.36    5.75    7.31    5.87    7.39    5.42    6.05    6.97    7.69    0.01    0.09    0.08    0.08    0.08    0.67    0.81    0.77    0.76   32.02   79.69    0.65    0.05    0.00   31.98    3.99
 1982 037   124     0     1    44.4  159.5  147.4   12.2    4.38    5.75    7.31    5.87    7.39    5.43    6.05    6.98    7.69    0.01    0.09    0.08    0.08    0.08    0.67    0.81    0.77    0.75   32.02   79.75    0.65    0.05    0.00   31.98    3.99
 1982 038   125     0     1    44.4  159.5  147.4   12.1    4.04    5.78    7.33    5.86    7.38    5.48    6.05    6.98    7.70    0.01    0.09    0.08    0.08    0.08    0.66    0.80    0.77    0.75   32.02   79.80    0.65    0.05    0.00   31.98    3.99
 1982 039   126     0     1    44.7  159.2  147.2   12.1    4.19    5.72    7.30    5.83    7.35    5.46    6.05    6.98    7.70    0.01    0.09    0.08    0.08    0.08    0.66    0.80    0.76    0.74   32.02   79.85    0.65    0.05    0.00   31.98    3.99
 1982 040   127     0     1    44.9  159.0  147.0   12.0    4.15    5.71    7.29    5.82    7.34    5.45    6.04    6.97    7.70    0.01    0.08    0.08    0.08    0.08    0.66    0.80    0.76    0.74   32.02   79.90    0.65    0.05    0.00   31.98    3.99
 1982 041   128     0     1    44.9  159.0  147.1   12.0    4.17    5.71    7.29    5.82    7.34    5.45    6.04    6.98    7.70    0.01    0.08    0.08    0.08    0.08    0.66    0.80    0.76    0.74   32.02   79.96    0.65    0.05    0.00   31.98    3.99
 1982 042   129     0     1    44.9  159.0  147.2   11.9    4.23    5.70    7.29    5.82    7.34    5.45    6.05    6.98    7.70    0.01    0.08    0.08    0.08    0.08    0.66    0.79    0.75    0.73   32.02   80.01    0.65    0.05    0.00   31.98    3.99
 1982 043   130     0     1    44.9  159.0  147.2   11.8    2.10    4.58    7.16    5.88    7.64    5.58    6.16    7.08    7.92    0.01    0.08    0.08    0.08    0.08    0.65    0.79    0.75    0.73   32.02   80.07    0.65    0.05    0.00   31.98    3.99
 1982 044   131     0     1    46.7  157.3  145.5   11.8    1.73    4.20    6.87    5.68    7.39    5.51    6.18    7.16    7.95    0.01    0.08    0.08    0.08    0.08    0.65    0.79    0.75    0.72   32.02   80.12    0.65    0.05    0.00   31.98    3.99
 1982 045   132     0     1    49.1  154.9  143.2   11.7    1.61    3.83    6.60    5.51    7.17    5.38    6.10    7.16    7.98    0.01    0.08    0.08    0.08    0.08    0.65    0.78    0.74    0.72   32.02   80.17    0.65    0.05    0.00   31.98    3.99
 1982 046   133     0     1    59.2  144.7  133.1   11.7    1.99    3.70    6.28    5.12    6.58    4.95    5.58    6.62    7.46    0.00    0.08    0.08    0.08    0.08    0.65    0.78    0.74    0.72   32.02   80.23    0.65    0.05    0.00   31.98    3.99
 1982 047   134     0     1    60.2  143.7  132.1   11.6    2.11    3.67    6.19    5.03    6.49    4.89    5.54    6.59    7.46    0.00    0.08    0.07    0.08    0.08    0.64    0.78    0.73    0.71   32.03   80.31    0.65    0.05    0.00   31.98    3.99
 1982 048   135     0     1    61.1  142.9  131.4   11.5    2.20    3.67    6.19    4.96    6.36    4.86    5.51    6.56    7.43    0.00    0.07    0.07    0.08    0.08    0.64    0.77    0.73    0.71   32.04   80.39    0.65    0.05    0.00   31.99    3.99
 1982 049   136     0     1    62.1  141.9  130.4   11.5    1.73    3.59    6.16    4.99    6.37    4.81    5.46    6.52    7.41    0.00    0.07    0.07    0.07    0.07    0.63    0.77    0.73    0.70   32.05   80.47    0.65    0.05    0.00   32.00    3.99
 1982 050   137     0     1    63.9  140.1  128.7   11.4    2.07    3.52    6.00    4.85    6.26    4.74    5.38    6.44    7.34    0.01    0.07    0.07    0.07    0.07    0.63    0.76    0.72    0.70   32.08   80.56    0.65    0.05    0.00   32.03    3.99
 1982 051   138     0     1    63.9  140.2  128.8   11.4    2.67    3.59    5.96    4.84    6.25    4.73    5.37    6.43    7.32    0.06    0.12    0.07    0.07    0.08    0.63    0.76    0.72    0.70   32.23   80.68    0.66    0.05    0.00   32.18    3.99
 1982 052   139     0     1    63.9  140.5  128.9   11.5    3.40    3.66    5.92    4.84    6.24    4.72    5.35    6.41    7.30    0.14    0.20    0.08    0.08    0.08    0.62    0.75    0.71    0.69   32.48   80.82    0.66    0.05    0.00   32.44    3.99
 1982 053   140     0     1    63.9  140.8  129.1   11.7    4.19    3.74    5.88    4.83    6.24    4.71    5.34    6.39    7.28    0.21    0.32    0.09    0.09    0.09    0.62    0.75    0.71    0.69   32.86   81.03    0.67    0.05    0.00   32.81    3.99
 1982 054   141     0     1    63.9  141.4  129.4   11.9    4.39    3.78    5.89    4.84    6.24    4.72    5.35    6.40    7.28    0.25    0.48    0.10    0.10    0.10    0.62    0.75    0.71    0.69   33.40   81.34    0.67    0.05    0.00   33.36    3.99
 1982 055   142     0     1    63.9  141.9  129.8   12.1    4.61    3.86    5.89    4.84    6.25    4.73    5.36    6.40    7.29    0.26    0.62    0.12    0.11    0.11    0.62    0.75    0.70    0.68   33.96   81.72    0.67    0.05    0.00   33.91    3.99
 1982 056   143     0     1    63.9  142.4  130.2   12.2    4.83    3.94    5.89    4.85    6.25    4.74    5.37    6.41    7.30    0.23    0.70    0.13    0.12    0.12    0.62    0.74    0.70    0.68   34.42   82.09    0.68    0.05    0.00   34.37    3.99
 1982 057   144     0     1    63.9  142.7  130.5   12.2    5.01    4.02    5.89    4.85    6.26    4.75    5.37    6.42    7.30    0.20    0.74    0.13    0.12    0.12    0.62    0.74    0.70    0.68   34.72   82.40    0.68    0.05    0.00   34.68    3.99
 1982 058   145     0     1    63.9  142.8  130.7   12.1    5.16    4.07    5.90    4.86    6.26    4.75    5.38    6.42    7.31    0.16    0.73    0.13    0.12    0.12    0.61    0.74    0.69    0.67   34.89   82.65    0.68    0.05    0.00   34.84    3.99
 1982 059   146     0     1    63.9  142.9  130.9   12.0    5.27    4.11    5.89    4.86    6.26    4.76    5.38    6.43    7.31    0.12    0.68    0.13    0.12    0.12    0.61    0.73    0.69    0.67   34.93   82.85    0.69    0.05    0.00   34.88    3.99
 1982 060   147     0     1    63.9  142.9  131.1   11.8    5.37    4.15    5.89    4.86    6.27    4.76    5.39    6.43    7.32    0.08    0.63    0.12    0.12    0.11    0.61    0.73    0.69    0.67   34.94   83.02    0.69    0.05    0.00   34.90    3.99
 1982 061   148     0     1    63.9  143.0  131.3   11.7    5.46    4.19    5.89    4.87    6.27    4.76    5.39    6.44    7.32    0.07    0.61    0.12    0.12    0.11    0.60    0.72    0.68    0.66   35.04   83.21    0.69    0.05    0.00   34.99    3.99
 1982 062   149     0     1    63.9  143.2  131.5   11.7    5.55    4.23    5.89    4.87    6.27    4.77    5.40    6.44    7.33    0.07    0.62    0.12    0.12    0.11    0.60    0.72    0.68    0.66   35.21   83.42    0.69    0.05    0.00   35.16    3.99
 1982 063   150     0     1    63.9  143.3  131.7   11.6    5.59    4.30    5.90    4.87    6.28    4.78    5.40    6.45    7.33    0.07    0.63    0.13    0.12    0.11    0.60    0.72    0.67    0.65   35.38   83.62    0.70    0.05    0.00   35.33    3.99
 1982 064   151     0     1    63.9  143.4  131.9   11.5    5.63    4.35    5.90    4.88    6.28    4.78    5.41    6.45    7.34    0.06    0.61    0.12    0.12    0.11    0.59    0.71    0.67    0.65   35.47   83.80    0.70    0.05    0.00   35.42    3.99
 1982 065   152     0     1    63.9  143.4  132.0   11.4    5.68    4.38    5.90    4.88    6.28    4.78    5.41    6.46    7.34    0.04    0.57    0.12    0.11    0.11    0.59    0.71    0.67    0.65   35.47   83.95    0.70    0.05    0.00   35.43    3.99
 1982 066   153     0     1    63.9  143.4  132.1   11.3    5.76    4.40    5.90    4.88    6.29    4.79    5.42    6.46    7.35    0.03    0.53    0.12    0.11    0.11    0.58    0.70    0.66    0.64   35.47   84.07    0.70    0.05    0.00   35.43    3.99
 1982 067   154     0     1    63.9  143.4  132.2   11.2    5.83    4.40    5.90    4.88    6.29    4.79    5.42    6.46    7.35    0.03    0.51    0.12    0.11    0.10    0.58    0.70    0.66    0.64   35.47   84.17    0.70    0.05    0.00   35.43    3.99
 1982 068   155     0     1    63.9  143.4  132.3   11.1    5.90    4.41    5.90    4.88    6.29    4.79    5.42    6.47    7.35    0.02    0.48    0.11    0.11    0.10    0.58    0.70    0.66    0.64   35.47   84.27    0.70    0.05    0.00   35.43    3.99
 1982 069   156     0     1    63.9  143.4  132.4   11.0    5.97    4.42    5.89    4.89    6.29    4.80    5.43    6.47    7.36    0.02    0.45    0.11    0.10    0.10    0.57    0.69    0.65    0.63   35.48   84.39    0.70    0.05    0.00   35.43    3.99
 1982 070   157     0     1    63.9  143.5  132.6   10.9    6.04    4.44    5.89    4.89    6.29    4.80    5.43    6.47    7.36    0.02    0.44    0.11    0.10    0.10    0.57    0.69    0.65    0.63   35.56   84.53    0.70    0.05    0.00   35.51    3.99
 1982 071   158     0     1    63.9  143.7  132.7   10.9    6.12    4.47    5.89    4.89    6.30    4.81    5.44    6.48    7.37    0.03    0.48    0.11    0.11    0.10    0.57    0.69    0.64    0.63   35.74   84.70    0.70    0.05    0.00   35.69    3.99
 1982 072   159     0     1    63.9  144.0  133.0   11.0    6.20    4.52    5.89    4.90    6.30    4.81    5.44    6.49    7.37    0.04    0.55    0.12    0.11    0.11    0.57    0.68    0.64    0.62   36.03   84.91    0.70    0.05    0.00   35.99    3.99
 1982 073   160     0     1    63.9  144.3  133.2   11.1    6.28    4.59    5.90    4.90    6.31    4.82    5.45    6.49    7.38    0.04    0.62    0.13    0.12    0.11    0.57    0.68    0.64    0.62   36.38   85.16    0.70    0.05    0.00   36.34    3.99
 1982 074   161     0     1    63.9  144.7  133.5   11.2    1.36    5.22    6.60    5.16    6.45    4.92    5.46    6.50    7.39    0.06    0.69    0.14    0.13    0.12    0.56    0.68    0.64    0.62   36.75   85.44    0.71    0.05    0.00   36.71    3.99
 1982 075   162     0     1    65.3  143.8  132.3   11.4    1.03    3.75    6.07    4.92    6.39    5.05    5.64    6.64    7.49    0.23    0.81    0.15    0.14    0.13    0.56    0.68    0.63    0.61   37.16   85.60    0.71    0.05    0.00   37.12    3.99
 1982 076   163     0     1    73.5  136.0  124.3   11.7    1.92    3.75    5.78    4.62    5.93    4.60    5.17    6.18    7.15    0.39    0.92    0.17    0.15    0.14    0.56    0.67    0.63    0.61   37.61   85.80    0.73    0.05    0.00   37.57    3.99
 1982 077   164     0     1    74.2  135.8  124.0   11.7    3.01    3.94    5.73    4.56    5.82    4.57    5.12    6.13    7.10    0.35    0.96    0.18    0.16    0.15    0.56    0.67    0.63    0.61   38.11   86.24    0.73    0.05    0.00   38.06    3.99
 1982 078   165     0     1    75.3  135.1  123.3   11.8    1.61    3.34    5.54    4.60    6.04    4.59    5.17    6.19    7.11    0.33    0.99    0.19    0.17    0.16    0.56    0.67    0.62    0.61   38.55   86.65    0.74    0.05    0.00   38.50    3.99
 1982 079   166     0     1    81.7  129.1  117.1   12.1    2.38    3.37    5.27    4.29    5.57    4.26    4.82    5.90    6.85    0.48    1.12    0.20    0.18    0.17    0.56    0.67    0.62    0.60   39.09   86.91    0.80    0.05    0.00   39.04    3.99
 1982 080   167     0     1    82.4  129.0  117.0   12.0    3.50    3.62    5.23    4.24    5.47    4.22    4.78    5.85    6.80    0.36    1.13    0.22    0.19    0.18    0.56    0.66    0.62    0.60   39.67   87.50    0.82    0.05    0.00   39.62    3.99
 1982 081   168     0     1    82.4  129.5  117.5   12.0    4.42    3.80    5.21    4.24    5.47    4.22    4.77    5.84    6.78    0.31    1.13    0.22    0.19    0.18    0.56    0.66    0.62    0.60   40.12   88.00    0.83    0.05    0.00   40.08    3.99
 1982 082   169     0     1    82.4  129.8  117.9   11.9    5.44    3.94    5.17    4.25    5.47    4.21    4.76    5.82    6.75    0.27    1.10    0.22    0.20    0.18    0.56    0.66    0.61    0.60   40.46   88.43    0.83    0.05    0.00   40.42    4.07
 1982 083   170     0     1    82.4  130.1  118.2   11.8    5.65    4.05    5.16    4.25    5.48    4.21    4.76    5.82    6.76    0.24    1.08    0.22    0.20    0.19    0.56    0.66    0.61    0.59   40.79   88.84    0.83    0.05    0.00   40.74    4.48
 1982 084   171     0     1    82.4  129.9  118.2   11.7    5.63    4.14    5.07    4.24    5.47    4.22    4.77    5.83    6.76    0.20    1.02    0.22    0.20    0.18    0.56    0.65    0.61    0.59   41.03   89.18    0.83    0.05    0.00   40.98    4.65
 1982 085   172     0     1    82.4  129.9  118.3   11.6    5.77    4.19    5.04    4.24    5.47    4.22    4.77    5.83    6.77    0.22    0.97    0.22    0.20    0.18    0.55    0.65    0.60    0.59   41.24   89.48    0.84    0.05    0.00   41.19    4.77
 1982 086   173     0     1    82.4  130.0  118.5   11.5    5.90    4.25    5.02    4.24    5.47    4.22    4.78    5.83    6.77    0.22    0.94    0.22    0.19    0.18    0.55    0.65    0.60    0.58   41.46   89.78    0.84    0.05    0.00   41.41    5.08
 1982 087   174     0     1    82.4  129.9  118.5   11.4    6.00    4.27    4.95    4.24    5.46    4.23    4.78    5.84    6.78    0.21    0.89    0.22    0.19    0.18    0.55    0.64    0.60    0.58   41.66   90.08    0.84    0.05    0.00   41.61    5.51
 1982 088   175     0     1    82.4  129.7  118.4   11.3    6.08    4.25    4.86    4.22    5.45    4.23    4.79    5.84    6.78    0.19    0.85    0.22    0.19    0.18    0.55    0.64    0.59    0.58   41.84   90.35    0.84    0.05    0.00   41.79    6.15
 1982 089   176     0     1    82.4  129.2  118.1   11.1    6.13    4.17    4.72    4.20    5.42    4.23    4.79    5.84    6.78    0.17    0.79    0.21    0.19    0.18    0.54    0.64    0.59    0.57   42.02   90.62    0.85    0.05    0.00   41.98    6.83
 1982 090   177     0     1    82.4  128.8  117.7   11.1    6.21    4.09    4.57    4.18    5.39    4.24    4.80    5.85    6.79    0.19    0.76    0.22    0.19    0.18    0.54    0.63    0.59    0.57   42.29   90.92    0.85    0.05    0.00   42.25    7.57
 1982 091   178     0     1    82.4  128.4  117.4   11.0    6.26    4.02    4.42    4.15    5.35    4.24    4.80    5.85    6.79    0.20    0.75    0.22    0.19    0.18    0.54    0.63    0.59    0.57   42.62   91.25    0.85    0.05    0.00   42.57    8.34
 1982 092   179     0     1    82.4  128.0  117.0   11.0    6.36    3.97    4.26    4.12    5.31    4.24    4.81    5.86    6.80    0.18    0.74    0.22    0.20    0.18    0.54    0.63    0.58    0.57   43.04   91.65    0.85    0.05    0.00   42.99    9.14
 1982 093   180     0     1    82.4  127.7  116.8   11.0    6.52    3.94    4.10    4.09    5.27    4.24    4.82    5.86    6.80    0.16    0.74    0.23    0.20    0.19    0.54    0.62    0.58    0.56   43.55   92.12    0.86    0.05    0.00   43.50    9.89
 1982 094   181     0     1    82.4  127.5  116.5   11.0    6.68    3.93    3.95    4.06    5.22    4.24    4.82    5.87    6.81    0.13    0.74    0.23    0.21    0.19    0.54    0.62    0.58    0.56   44.04   92.60    0.86    0.05    0.00   44.00   10.38
 1982 095   182     0     1    82.4  127.4  116.5   10.9    6.50    4.12    3.86    4.04    5.19    4.25    4.83    5.88    6.81    0.12    0.73    0.24    0.21    0.20    0.53    0.62    0.58    0.56   44.47   93.02    0.86    0.05    0.00   44.42   10.64
 1982 096   183     0     1    82.4  127.6  116.6   11.0    6.64    4.17    3.82    4.04    5.18    4.25    4.84    5.88    6.82    0.27    0.73    0.24    0.22    0.20    0.53    0.62    0.57    0.56   44.89   93.37    0.86    0.05    0.00   44.85   10.74
 1982 097   184     0     1    82.4  127.7  116.8   10.9    6.80    4.23    3.81    4.04    5.18    4.26    4.84    5.88    6.82    0.26    0.71    0.24    0.22    0.20    0.53    0.62    0.57    0.55   45.14   93.69    0.87    0.05    0.00   45.10   10.93
 1982 098   185     0     1    82.4  127.6  116.8   10.8    6.85    4.25    3.79    4.04    5.17    4.26    4.85    5.89    6.82    0.21    0.67    0.23    0.21    0.19    0.53    0.61    0.57    0.55   45.22   93.92    0.87    0.05    0.00   45.18   11.28
 1982 099   186     0     1    82.4  127.3  116.7   10.6    6.86    4.22    3.73    4.03    5.15    4.26    4.85    5.89    6.83    0.16    0.61    0.22    0.21    0.19    0.52    0.61    0.56    0.55   45.25   94.11    0.87    0.05    0.00   45.20   11.70
 1982 100   187     0     1    82.4  126.9  116.5   10.4    6.82    4.18    3.67    4.01    5.13    4.26    4.85    5.89    6.83    0.13    0.56    0.22    0.20    0.18    0.52    0.60    0.56    0.54   45.28   94.29    0.87    0.05    0.00   45.23   12.68
 1982 101   188     0     1    82.4  126.0  115.7   10.3    6.64    4.04    3.51    3.96    5.05    4.25    4.86    5.90    6.83    0.12    0.52    0.21    0.20    0.18    0.51    0.60    0.56    0.54   45.36   94.48    0.87    0.05    0.00   45.32   13.73
 1982 102   189     0     1    82.4  125.1  114.9   10.2    6.53    3.91    3.33    3.90    4.96    4.24    4.86    5.90    6.84    0.13    0.49    0.21    0.19    0.18    0.51    0.60    0.55    0.54   45.55   94.70    0.87    0.05    0.00   45.50   14.72
 1982 103   190     0     1    82.4  124.5  114.2   10.2    6.52    3.80    3.16    3.83    4.86    4.23    4.87    5.91    6.84    0.14    0.51    0.22    0.20    0.18    0.51    0.59    0.55    0.54   45.86   95.01    0.87    0.05    0.00   45.82   15.68
 1982 104   191     0     1    82.4  123.9  113.7   10.2    6.61    3.74    3.00    3.77    4.76    4.22    4.87    5.91    6.85    0.11    0.52    0.22    0.20    0.19    0.51    0.59    0.55    0.53   46.25   95.39    0.87    0.05    0.00   46.21   16.61
 1982 105   192     0     1    82.4  123.4  113.2   10.2    6.75    3.73    2.85    3.70    4.66    4.21    4.88    5.92    6.85    0.09    0.50    0.23    0.21    0.19    0.51    0.59    0.55    0.53   46.70   95.85    0.87    0.05    0.00   46.66   17.53
 1982 106   193     0     1    82.4  123.0  112.8   10.2    6.90    3.76    2.71    3.64    4.55    4.20    4.89    5.92    6.86    0.08    0.45    0.23    0.22    0.20    0.51    0.59    0.55    0.53   47.20   96.37    0.88    0.05    0.00   47.15   18.40
 1982 107   194     0     1    82.4  122.6  112.5   10.1    7.05    3.81    2.59    3.58    4.44    4.18    4.90    5.93    6.86    0.07    0.42    0.23    0.22    0.21    0.51    0.59    0.55    0.53   47.69   96.89    0.88    0.05    0.00   47.64   19.24
 1982 108   195     0     1    82.4  122.2  112.1   10.1    7.18    3.83    2.48    3.51    4.33    4.16    4.91    5.94    6.87    0.07    0.39    0.23    0.23    0.21    0.51    0.59    0.54    0.53   48.10   97.33    0.88    0.05    0.00   48.05   20.08
 1982 109   196     0     1    82.4  121.7  111.6   10.0    7.31    3.85    2.37    3.44    4.22    4.14    4.91    5.94    6.88    0.07    0.36    0.23    0.23    0.22    0.51    0.59    0.54    0.52   48.47   97.74    0.88    0.05    0.00   48.42   20.88
 1982 110   197     0     1    82.4  121.3  111.2   10.1    7.45    3.87    2.28    3.37    4.10    4.12    4.92    5.95    6.88    0.15    0.33    0.23    0.24    0.22    0.51    0.58    0.54    0.52   48.85   98.11    0.89    0.05    0.00   48.80   21.79
 1982 111   198     0     1    82.4  120.6  110.6   10.0    7.43    3.87    2.19    3.29    3.99    4.09    4.92    5.95    6.88    0.11    0.32    0.23    0.24    0.22    0.51    0.58    0.54    0.52   49.12   98.44    0.89    0.05    0.00   49.08   22.62
 1982 112   199     0     1    82.4  120.0  110.1    9.9    7.49    3.85    2.11    3.21    3.87    4.06    4.93    5.96    6.89    0.10    0.30    0.23    0.24    0.22    0.51    0.58    0.54    0.52   49.35   98.72    0.89    0.05    0.00   49.30   23.40
 1982 113   200     0     1    82.4  119.4  109.6    9.9    7.57    3.84    2.04    3.13    3.75    4.03    4.93    5.96    6.89    0.09    0.28    0.22    0.24    0.23    0.51    0.58    0.53    0.52   49.55   98.98    0.90    0.05    0.00   49.51   24.15
 1982 114   201     0     1    82.4  118.9  109.1    9.8    7.67    3.83    1.98    3.05    3.64    4.00    4.93    5.96    6.90    0.08    0.27    0.22    0.24    0.23    0.51    0.57    0.53    0.51   49.74   99.23    0.90    0.05    0.00   49.70   24.86
 1982 115   202     0     1    82.4  118.4  108.6    9.8    7.77    3.82    1.94    2.97    3.53    3.96    4.93    5.97    6.90    0.08    0.26    0.21    0.24    0.23    0.51    0.57    0.53    0.51   49.93   99.47    0.90    0.05    0.00   49.88   25.53
 1982 116   203     0     1    82.4  117.9  108.2    9.7    7.87    3.81    1.91    2.90    3.43    3.92    4.92    5.97    6.90    0.08    0.24    0.21    0.24    0.23    0.51    0.57    0.53    0.51   50.12   99.71    0.90    0.05    0.00   50.07   26.19
 1982 117   204     0     1    82.4  117.4  107.8    9.7    7.98    3.81    1.88    2.83    3.33    3.89    4.92    5.98    6.91    0.07    0.23    0.20    0.24    0.23    0.51    0.57    0.52    0.51   50.32   99.96    0.91    0.05    0.00   50.27   26.80
 1982 118   205     0     1    82.4  117.0  107.4    9.6    8.07    3.80    1.87    2.77    3.24    3.85    4.92    5.98    6.91    0.07    0.22    0.20    0.24    0.23    0.51    0.56    0.52    0.50   50.51  100.20    0.91    0.05    0.00   50.46   27.39
 1982 119   206     0     1    82.4  116.6  107.0    9.6    3.29    6.23    1.85    2.71    3.16    3.81    4.91    5.99    6.92    0.15    0.21    0.19    0.24    0.22    0.50    0.56    0.52    0.50   50.71  100.41    0.91    0.05    0.00   50.67   28.42
 1982 120   207     0     1    82.4  115.9  106.2    9.7    2.49    6.27    1.84    2.65    3.08    3.77    4.91    5.99    6.92    0.28    0.30    0.19    0.24    0.22    0.50    0.55    0.52    0.50   51.03  100.60    0.91    0.05    0.00   50.99   30.37
 1982 121   208     0     1    82.4  114.3  104.5    9.7    2.01    5.32    1.84    2.61    3.04    3.74    4.90    5.99    6.91    0.29    0.37    0.18    0.24    0.22    0.50    0.55    0.52    0.50   51.35  100.88    0.92    0.05    0.00   51.31   32.61
 1982 122   209     0     1    82.4  112.3  102.6    9.7    1.45    4.23    1.83    2.55    2.97    3.71    4.90    5.99    6.92    0.26    0.43    0.18    0.24    0.22    0.50    0.55    0.51    0.50   51.64  101.17    0.92    0.05    0.00   51.59   34.46
 1982 123   210     0     1    82.4  110.8  101.0    9.7    1.22    3.36    1.82    2.50    2.90    3.67    4.89    5.99    6.92    0.22    0.48    0.18    0.24    0.22    0.50    0.54    0.51    0.49   51.95  101.49    0.92    0.05    0.00   51.90   35.88
 1982 124   211     0     1    82.4  109.7  100.0    9.7    1.23    2.78    1.81    2.45    2.83    3.63    4.88    6.00    6.93    0.17    0.52    0.17    0.24    0.22    0.50    0.54    0.51    0.49   52.32  101.89    0.92    0.05    0.00   52.28   37.00
 1982 125   212     0     1    82.4  109.0   99.4    9.6    1.35    2.45    1.81    2.40    2.77    3.59    4.87    6.00    6.93    0.09    0.53    0.17    0.24    0.22    0.50    0.54    0.51    0.49   52.74  102.35    0.92    0.05    0.00   52.69   37.99
 1982 126   213     0     1    82.4  108.4   98.9    9.5    0.36    1.45    2.72    2.36    2.71    3.55    4.86    6.01    6.93    0.09    0.47    0.16    0.24    0.22    0.50    0.53    0.51    0.49   53.16  102.78    0.93    0.05    0.00   53.11   38.83
 1982 127   214     0     1    82.4  108.3   98.3    9.9    0.33    1.18    2.78    2.32    2.66    3.52    4.85    6.01    6.94    0.37    0.66    0.17    0.23    0.22    0.50    0.53    0.50    0.49   53.83  103.06    0.93    0.05    0.00   53.79   40.75
 1982 128   215     0     1    82.4  107.1   97.1    9.9    0.85    0.85    2.38    2.28    2.63    3.47    4.82    6.00    6.93    0.26    0.74    0.19    0.23    0.21    0.50    0.53    0.50    0.48   54.56  103.76    0.93    0.05    0.00   54.51   42.78
 1982 129   216     0     1    82.4  105.7   96.0    9.7    1.18    0.66    1.96    2.24    2.59    3.43    4.80    6.01    6.93    0.22    0.53    0.20    0.23    0.21    0.50    0.52    0.50    0.48   55.22  104.29    0.93    0.05    0.00   55.17   44.40
 1982 130   217     0     1    82.4  104.6   94.9    9.7    1.11    0.57    1.63    2.21    2.54    3.39    4.78    6.01    6.94    0.17    0.59    0.21    0.23    0.21    0.50    0.52    0.50    0.48   55.79  104.81    0.94    0.05    0.00   55.74   45.52
 1982 131   218     0     1    82.4  104.1   94.5    9.5    1.18    0.70    1.42    2.19    2.51    3.36    4.76    6.02    6.94    0.13    0.51    0.21    0.23    0.21    0.50    0.51    0.50    0.48   56.33  105.30    0.94    0.05    0.00   56.28   46.63
 1982 132   219     0     1    82.4  103.5   94.0    9.5    0.45    0.70    1.36    2.32    2.48    3.32    4.73    6.03    6.95    0.11    0.53    0.22    0.23    0.21    0.50    0.51    0.50    0.48   56.90  105.86    0.94    0.05    0.00   56.86   46.94
 1982 133   220     0     1    82.4  104.0   94.0   10.0    0.49    0.71    1.27    2.39    2.49    3.32    4.72    6.03    6.95    0.40    0.72    0.25    0.23    0.21    0.51    0.51    0.50    0.48   57.66  106.20    0.94    0.05    0.00   57.61   47.30
 1982 134   221     0     1    82.4  104.4   94.4   10.0    1.09    0.76    1.22    2.41    2.51    3.32    4.72    6.03    6.95    0.18    0.83    0.27    0.23    0.20    0.51    0.51    0.49    0.48   58.44  106.88    0.94    0.05    0.00   58.39   47.30
 1982 135   222     0     1    82.4  105.1   95.0   10.0    0.82    1.01    1.29    2.50    2.62    3.33    4.72    6.03    6.95    0.27    0.82    0.27    0.24    0.20    0.51    0.51    0.49    0.47   59.14  107.54    0.94    0.05    0.00   59.09   47.51
 1982 136   223     0     1    82.4  105.5   95.4   10.2    1.13    1.08    1.27    2.47    2.75    3.33    4.72    6.02    6.94    0.25    0.91    0.29    0.25    0.20    0.51    0.51    0.49    0.47   59.82  108.04    0.94    0.05    0.00   59.77   47.51
 1982 137   224     0     1    82.4  106.2   95.9   10.3    1.02    1.35    1.31    2.42    2.90    3.34    4.72    6.02    6.94    0.39    0.88    0.31    0.26    0.20    0.51    0.51    0.49    0.47   60.45  108.57    0.95    0.05    0.00   60.40   47.51
 1982 138   225     0     1    82.4  106.8   96.3   10.5    1.21    1.43    1.36    2.39    3.00    3.35    4.72    6.02    6.94    0.46    0.98    0.33    0.28    0.20    0.51    0.51    0.49    0.47   61.06  108.99    0.95    0.05    0.00   61.02   47.51
 1982 139   226     0     1    82.4  107.4   97.2   10.2    1.94    1.69    1.41    2.42    3.03    3.36    4.72    6.02    6.93    0.18    0.91    0.32    0.29    0.20    0.51    0.51    0.49    0.47   61.72  109.89    0.95    0.05    0.00   61.67   47.51
 1982 140   227     0     1    82.4  108.1   98.0   10.1    2.38    1.95    1.48    2.47    3.06    3.36    4.72    6.01    6.92    0.20    0.82    0.32    0.29    0.20    0.51    0.51    0.49    0.47   62.37  110.65    0.95    0.05    0.00   62.33   47.51
 1982 141   228     0     1    82.4  108.7   98.7   10.0    1.03    1.83    1.83    2.35    3.71    3.37    4.73    6.01    6.92    0.14    0.75    0.31    0.29    0.20    0.51    0.51    0.48    0.47   63.00  111.41    0.95    0.05    0.00   62.95   47.51
 1982 142   229     0     1    82.4  109.4   99.1   10.3    1.25    1.88    1.82    2.25    3.94    3.38    4.73    6.01    6.91    0.35    0.86    0.34    0.30    0.21    0.51    0.51    0.48    0.46   63.70  111.79    0.95    0.05    0.00   63.65   47.51
 1982 143   230     0     1    82.4  110.1   99.9   10.2    1.88    2.14    1.85    2.22    4.01    3.40    4.73    6.01    6.91    0.15    0.81    0.35    0.32    0.22    0.51    0.51    0.48    0.46   64.40  112.62    0.95    0.05    0.00   64.35   47.51
 1982 144   231     0     1    82.4  110.8  100.6   10.1    2.30    2.34    1.90    2.25    4.05    3.41    4.73    6.00    6.90    0.20    0.75    0.35    0.33    0.22    0.51    0.50    0.48    0.46   65.02  113.28    0.95    0.05    0.00   64.98   47.51
 1982 145   232     0     1    82.4  111.3  101.2   10.1    1.25    2.22    2.26    2.31    4.11    3.55    4.73    6.00    6.90    0.17    0.72    0.34    0.33    0.23    0.51    0.50    0.48    0.46   65.57  113.90    0.95    0.05    0.00   65.53   47.51
 1982 146   233     0     1    84.1  110.2   99.8   10.3    0.62    1.37    1.97    1.83    3.08    3.33    5.08    6.39    7.18    0.32    0.81    0.36    0.34    0.24    0.51    0.50    0.48    0.46   66.12  114.20    0.95    0.05    0.00   66.07   47.51
 1982 147   234     0     1    87.4  107.4   96.9   10.5    0.74    1.36    1.94    1.79    2.96    3.03    4.70    6.26    7.28    0.38    0.89    0.37    0.35    0.25    0.51    0.50    0.48    0.46   66.67  114.54    0.95    0.05    0.00   66.63   47.63
 1982 148   235     0     1    96.0   99.3   88.7   10.6    1.35    1.44    1.92    1.73    2.80    2.78    4.17    5.60    6.64    0.17    0.94    0.39    0.36    0.27    0.52    0.51    0.48    0.46   67.28  115.09    0.95    0.05    0.00   67.23   49.10
 1982 149   236     0     1    99.3   95.2   84.8   10.3    0.66    1.01    1.50    1.43    2.29    2.56    4.01    5.62    6.78    0.19    0.73    0.38    0.37    0.28    0.51    0.51    0.48    0.46   67.89  115.73    0.95    0.05    0.00   67.85   50.72
 1982 150   237     0     1   103.3   90.1   79.7   10.4    0.58    0.83    1.26    1.32    2.10    2.30    3.64    5.33    6.68    0.33    0.67    0.39    0.38    0.29    0.51    0.51    0.48    0.46   68.54  116.06    0.96    0.05    0.00   68.49   52.65
 1982 151   238     0     1   107.2   84.9   74.7   10.2    0.81    0.65    0.97    1.20    1.91    2.13    3.36    5.02    6.45    0.12    0.50    0.41    0.39    0.31    0.52    0.51    0.48    0.46   69.21  116.70    1.02    0.05    0.00   69.17   54.41
 1982 152   239     0     1   115.9   75.1   64.6   10.5    0.60    0.48    0.70    1.02    1.62    1.86    2.91    4.36    5.67    0.29    0.62    0.43    0.41    0.32    0.51    0.51    0.48    0.46   69.85  117.00    1.08    0.05    0.00   69.80   55.31
 1982 153   240     0     1   116.9   73.8   63.4   10.4    0.84    0.67    0.63    0.98    1.54    1.84    2.83    4.25    5.56    0.13    0.60    0.41    0.41    0.33    0.51    0.51    0.48    0.46   70.46  117.72    1.09    0.05    0.00   70.42   56.85
 1982 154   241     0     1   116.9   72.7   62.6   10.1    1.00    0.75    0.48    0.91    1.41    1.79    2.80    4.25    5.55    0.19    0.36    0.40    0.42    0.34    0.51    0.51    0.48    0.45   71.00  118.13    1.10    0.05    0.00   70.96   58.27
 1982 155   242     0     1   116.9   71.8   61.6   10.2    0.64    0.55    0.52    0.85    1.29    1.75    2.77    4.25    5.55    0.19    0.41    0.39    0.42    0.34    0.51    0.51    0.47    0.45   71.48  118.58    1.11    0.05    0.00   71.43   59.14
 1982 156   243     0     1   116.9   71.4   61.2   10.1    0.74    0.64    0.56    0.79    1.18    1.71    2.73    4.24    5.55    0.28    0.45    0.38    0.41    0.33    0.50    0.51    0.47    0.45   71.91  118.97    1.11    0.05    0.00   71.86   60.83
 1982 157   244     0     1   116.9   70.1   60.0   10.1    0.54    0.43    0.43    0.74    1.09    1.67    2.70    4.23    5.54    0.18    0.47    0.37    0.40    0.33    0.50    0.51    0.47    0.45   72.34  119.48    1.12    0.05    0.00   72.29   61.54
 1982 158   245     0     1   116.9   69.8   59.8   10.0    0.51    0.58    0.54    0.71    1.02    1.63    2.66    4.22    5.53    0.15    0.47    0.36    0.39    0.32    0.50    0.51    0.47    0.45   72.79  119.99    1.12    0.05    0.00   72.74   62.34
 1982 159   246     0     1   116.9   69.6   59.5   10.1    0.46    0.63    0.59    0.68    0.95    1.59    2.63    4.22    5.53    0.17    0.57    0.35    0.38    0.32    0.50    0.51    0.47    0.45   73.34  120.47    1.13    0.05    0.00   73.30   63.71
 1982 160   247     0     1   116.9   68.8   58.9   10.0    0.47    0.46    0.46    0.65    0.97    1.58    2.60    4.21    5.52    0.12    0.54    0.34    0.37    0.31    0.50    0.51    0.47    0.45   73.97  121.21    1.13    0.05    0.00   73.93   64.64
 1982 161   248     0     1   118.3   67.2   57.3    9.9    0.74    0.49    0.48    0.58    0.90    1.47    2.52    4.10    5.43    0.17    0.39    0.36    0.38    0.32    0.50    0.51    0.47    0.45   74.67  121.61    1.13    0.05    0.00   74.62   65.28
 1982 162   249     0     1   118.3   67.2   57.3    9.9    1.13    0.64    0.54    0.54    0.86    1.45    2.49    4.09    5.41    0.09    0.41    0.35    0.39    0.32    0.50    0.51    0.47    0.45   75.35  122.34    1.14    0.05    0.00   75.31   66.09
 1982 163   250     0     1   118.3   67.0   57.1    9.9    0.95    0.78    0.59    0.52    0.82    1.42    2.47    4.08    5.41    0.14    0.42    0.34    0.39    0.31    0.51    0.51    0.47    0.45   75.96  122.93    1.14    0.05    0.00   75.92   67.39
 1982 164   251     0     1   118.3   66.2   56.5    9.8    0.94    0.62    0.46    0.57    0.80    1.40    2.44    4.07    5.39    0.08    0.42    0.33    0.38    0.31    0.51    0.51    0.47    0.45   76.52  123.58    1.14    0.05    0.00   76.47   68.03
 1982 165   252     0     1   118.3   66.1   56.4    9.7    0.90    0.75    0.50    0.56    0.75    1.37    2.42    4.07    5.40    0.09    0.41    0.32    0.37    0.30    0.51    0.51    0.46    0.44   77.03  124.13    1.14    0.05    0.00   76.98   68.88
 1982 166   253     0     1   118.3   65.8   56.1    9.7    0.36    0.62    0.64    0.57    0.74    1.36    2.40    4.07    5.40    0.09    0.41    0.31    0.36    0.30    0.51    0.51    0.46    0.44   77.52  124.68    1.14    0.05    0.00   77.48   69.59
 1982 167   254     0     1   118.3   65.6   55.7    9.9    0.47    0.49    0.64    0.57    0.73    1.32    2.43    4.05    5.37    0.17    0.50    0.34    0.37    0.31    0.51    0.51    0.46    0.44   78.10  125.02    1.14    0.05    0.00   78.06   70.53
 1982 168   255     0     1   118.6   65.0   55.0    9.9    0.88    0.64    0.43    0.52    0.71    1.27    2.37    4.03    5.33    0.10    0.48    0.35    0.38    0.32    0.51    0.51    0.46    0.44   78.71  125.61    1.14    0.05    0.00   78.66   71.01
 1982 169   256     0     1   118.6   65.1   55.3    9.8    1.23    0.77    0.49    0.56    0.72    1.26    2.35    4.01    5.30    0.11    0.46    0.34    0.36    0.32    0.50    0.51    0.46    0.44   79.29  126.29    1.14    0.05    0.00   79.25   72.04
 1982 170   257     0     1   118.6   64.6   54.9    9.7    1.24    0.62    0.54    0.55    0.73    1.25    2.33    4.00    5.28    0.10    0.43    0.33    0.35    0.31    0.50    0.51    0.46    0.44   79.86  126.94    1.14    0.05    0.00   79.81   72.61
 1982 171   258     0     1   118.6   64.6   55.0    9.6    1.11    0.77    0.59    0.60    0.69    1.23    2.30    4.00    5.28    0.09    0.41    0.32    0.34    0.31    0.50    0.51    0.46    0.44   80.39  127.55    1.14    0.05    0.00   80.35   73.80
 1982 172   259     0     1   118.6   63.9   54.4    9.6    1.03    0.67    0.47    0.58    0.66    1.21    2.28    4.00    5.29    0.08    0.40    0.31    0.33    0.30    0.50    0.51    0.46    0.44   80.93  128.15    1.14    0.05    0.00   80.88   74.60
 1982 173   260     0     1   118.6   63.7   54.2    9.5    0.48    0.72    0.59    0.59    0.64    1.19    2.26    4.00    5.29    0.06    0.38    0.31    0.32    0.30    0.50    0.51    0.46    0.44   81.47  128.76    1.14    0.05    0.00   81.42   75.13
 1982 174   261     0     1   118.6   63.7   54.0    9.7    0.66    0.73    0.61    0.55    0.67    1.19    2.25    3.98    5.26    0.17    0.47    0.33    0.33    0.29    0.51    0.50    0.46    0.44   82.07  129.16    1.14    0.05    0.00   82.03   76.41

*DSSAT Cropping System Model Ver. 4.5.1.023 -Stub         OCT 13, 2014; 10:45:28
                                                                                
*RUN   2        : DRYLAND  - 60 KG N/HA     CSCER045 KSAS8101    2              
 MODEL          : CSCER045 - Wheat                                              
 EXPERIMENT     : KSAS8101 WH                                                   
 DATA PATH      :                                                               
 TREATMENT  2   : DRYLAND  - 60 KG N/HA     CSCER045                            
  
!                                                            NO3 (ppm) by soil depth (cm):                                           NH4 (ppm) by soil depth (cm):
!                                                            0-5    5-15   15-30   30-45   45-60   60-90  90-120 120-150 150-180     0-5    5-15   15-30   30-45   45-60   60-90  90-120 120-150 150-180
@YEAR DOY   DAS  NAPC  NI#M    NLCC   NIAD   NITD   NHTD    NI1D    NI2D    NI3D    NI4D    NI5D    NI6D    NI7D    NI8D    NI9D    NH1D    NH2D    NH3D    NH4D    NH5D    NH6D    NH7D    NH8D    NH9D    NMNC    NITC    NDNC    NIMC    AMLC   NNMNC    NUCM
 1981 278     0     0     0     0.0  176.6  116.2   60.5    9.80    9.80    7.30    5.10    5.10    4.70    4.30    4.30    4.30    3.40    3.40    3.20    2.50    2.50    2.20    2.70    2.70    2.70    0.00    0.00    0.00    0.00    0.00    0.00    0.00
 1981 279     1     0     0     0.0  176.7  122.8   53.9   13.24   11.03    7.81    5.46    5.46    4.77    4.37    4.37    4.36    0.00    2.22    2.68    2.14    2.14    2.12    2.63    2.63    2.64    0.11    6.67    0.00    0.03    0.00    0.09    0.00
 1981 280     2     0     0     0.0  177.0  126.4   50.6   13.39   11.70    8.19    5.75    5.75    4.84    4.44    4.43    4.42    0.12    1.62    2.28    1.85    1.86    2.06    2.56    2.57    2.59    0.39   10.24    0.00    0.04    0.00    0.35    0.00
 1981 281     3     0     0     0.0  177.3  129.3   48.0   13.68   12.11    8.48    5.97    5.97    4.90    4.51    4.49    4.48    0.13    1.34    1.98    1.63    1.64    2.00    2.50    2.52    2.54    0.76   13.13    0.00    0.05    0.00    0.71    0.00
 1981 282     4     0     0     0.0  177.7  131.7   46.1   13.98   12.40    8.71    6.15    6.16    4.95    4.56    4.55    4.53    0.15    1.21    1.75    1.45    1.47    1.94    2.44    2.47    2.49    1.17   15.51    0.00    0.05    0.00    1.12    0.00
 1981 283     5     0     0     0.0  178.2  133.7   44.5   14.26   12.61    8.88    6.29    6.30    5.00    4.62    4.60    4.58    0.15    1.16    1.58    1.31    1.33    1.90    2.40    2.42    2.45    1.58   17.51    0.00    0.05    0.00    1.54    0.00
 1981 284     6     0     0     0.0  178.6  135.4   43.2   14.54   12.77    9.02    6.41    6.42    5.04    4.66    4.65    4.62    0.15    1.14    1.43    1.20    1.21    1.86    2.35    2.38    2.40    1.98   19.24    0.00    0.05    0.00    1.93    0.00
 1981 285     7     0     0     0.0  178.9  137.0   41.9   13.26   13.70    9.14    6.51    6.53    5.09    4.71    4.69    4.67    0.14    1.14    1.31    1.10    1.11    1.82    2.31    2.33    2.37    2.37   20.84    0.00    0.05    0.00    2.33    0.00
 1981 286     8     0     0     0.0  179.4  138.5   40.9   13.16   14.00    9.25    6.60    6.63    5.13    4.76    4.74    4.71    0.30    1.16    1.20    1.02    1.02    1.78    2.27    2.29    2.33    2.87   22.35    0.00    0.05    0.00    2.82    0.00
 1981 287     9     0     0     0.0  180.0  140.1   39.9   12.74   14.66    9.35    6.68    6.72    5.16    4.80    4.78    4.75    0.32    1.19    1.10    0.93    0.93    1.74    2.23    2.25    2.29    3.43   23.97    0.00    0.05    0.00    3.38    0.00
 1981 288    10     0     0     0.0  180.6  141.7   38.9   14.04   14.69    9.42    6.72    6.79    5.18    4.83    4.81    4.79    0.47    1.24    1.00    0.85    0.85    1.71    2.18    2.21    2.25    4.06   25.54    0.00    0.05    0.00    4.01    0.00
 1981 289    11    60     1     0.0  241.2  173.5   67.6   68.12   14.67    9.49    6.77    6.85    5.20    4.86    4.85    4.82   52.08    1.28    0.91    0.78    0.78    1.67    2.14    2.17    2.21    4.70   27.20    0.00    0.05    0.09    4.66    0.00
 1981 290    12    60     1     0.0  241.8  199.1   42.6   76.28   24.15   14.70    6.84    6.92    5.24    4.91    4.89    4.86   10.16    1.32    0.83    0.72    0.72    1.64    2.10    2.13    2.17    5.35   52.57    0.00    0.05    0.15    5.30    0.00
 1981 291    13    60     1     0.0  242.3  202.6   39.8   82.93   22.81   15.19    6.83    6.95    5.24    4.92    4.91    4.89    6.39    1.52    0.76    0.66    0.66    1.60    2.07    2.09    2.13    6.03   55.99    0.00    0.05    0.26    5.98    0.00
 1981 292    14    60     1     0.0  242.9  206.6   36.4   90.75   22.29   15.07    6.83    6.97    5.25    4.94    4.93    4.91    1.77    1.55    0.71    0.61    0.61    1.57    2.03    2.06    2.10    6.69   59.97    0.00    0.05    0.34    6.65    0.00
 1981 293    15    60     1     0.0  243.6  208.6   34.9   92.39   22.47   15.12    6.88    7.03    5.28    4.99    4.97    4.95    0.62    1.57    0.65    0.57    0.57    1.54    2.00    2.02    2.06    7.36   62.00    0.00    0.05    0.38    7.31    0.00
 1981 294    16    60     1     0.0  244.2  210.2   34.0   93.21   22.68   15.17    6.93    7.08    5.32    5.03    5.02    4.99    0.30    1.59    0.61    0.52    0.52    1.51    1.96    1.98    2.03    8.08   63.62    0.00    0.05    0.42    8.04    0.00
 1981 295    17    60     1     0.0  244.9  211.7   33.2   93.78   22.89   15.21    6.98    7.13    5.36    5.07    5.06    5.03    0.22    1.61    0.56    0.48    0.48    1.48    1.92    1.95    1.99    8.81   65.08    0.00    0.05    0.46    8.76    0.00
 1981 296    18    60     1     0.0  245.5  213.0   32.6   94.26   23.07   15.25    7.02    7.17    5.39    5.11    5.10    5.07    0.19    1.62    0.53    0.45    0.45    1.46    1.89    1.91    1.96    9.44   66.35    0.00    0.05    0.49    9.39    0.00
 1981 297    19    60     1     0.0  246.1  214.1   31.9   94.70   23.22   15.27    7.05    7.21    5.42    5.15    5.14    5.11    0.15    1.62    0.50    0.43    0.43    1.43    1.86    1.88    1.93   10.00   67.50    0.00    0.05    0.52    9.96    0.00
 1981 298    20    60     1     0.0  246.5  215.1   31.4   95.11   23.33   15.29    7.08    7.24    5.45    5.18    5.17    5.14    0.11    1.60    0.48    0.41    0.40    1.41    1.84    1.85    1.90   10.45   68.48    0.00    0.05    0.55   10.40    0.00
 1981 299    21    60     1     0.0  246.8  215.9   30.9   95.48   23.39   15.31    7.10    7.27    5.47    5.21    5.20    5.18    0.16    1.56    0.46    0.39    0.39    1.39    1.81    1.83    1.87   10.81   69.31    0.00    0.05    0.56   10.76    0.00
 1981 300    22    60     1     0.0  247.1  216.7   30.4   95.87   23.44   15.32    7.12    7.29    5.49    5.23    5.23    5.21    0.17    1.51    0.44    0.37    0.37    1.38    1.79    1.80    1.85   11.13   70.11    0.00    0.05    0.56   11.09    0.04
 1981 301    23    60     1     0.0  247.5  217.6   30.0   96.25   23.48   15.33    7.14    7.31    5.52    5.26    5.26    5.24    0.19    1.49    0.43    0.36    0.35    1.36    1.77    1.78    1.82   11.54   70.98    0.00    0.05    0.56   11.49    0.14
 1981 302    24    60     1     0.0  247.9  218.5   29.5   96.65   23.54   15.35    7.16    7.34    5.54    5.30    5.29    5.27    0.22    1.49    0.41    0.34    0.34    1.34    1.74    1.75    1.79   12.06   71.97    0.00    0.05    0.57   12.02    0.27
 1981 303    25    60     1     0.0  248.4  219.5   29.0   97.09   23.62   15.37    7.19    7.37    5.58    5.33    5.33    5.31    0.22    1.50    0.39    0.32    0.32    1.31    1.71    1.72    1.76   12.71   73.12    0.00    0.05    0.57   12.66    0.43
 1981 304    26    60     1     0.0  249.0  220.6   28.4   97.54   23.73   15.39    7.22    7.40    5.61    5.37    5.37    5.34    0.20    1.50    0.37    0.30    0.30    1.29    1.68    1.69    1.73   13.42   74.36    0.00    0.05    0.58   13.37    0.56
 1981 305    27    60     1     0.0  249.6  221.7   27.9   11.30   43.60   15.64   14.77    7.25    6.34    8.17    5.40    5.38    0.21    1.50    0.36    0.29    0.28    1.26    1.65    1.66    1.70   14.15   75.60    0.00    0.05    0.58   14.10    0.69
 1981 306    28    60     1     0.0  250.2  222.3   27.9   10.69   39.49   17.18   14.22    8.10    6.09    8.43    5.98    5.41    0.44    1.68    0.37    0.29    0.30    1.25    1.62    1.63    1.67   14.90   76.32    0.00    0.05    0.58   14.85    0.79
 1981 307    29    60     1     0.0  250.8  222.9   27.9   11.40   37.13   17.65   13.70    8.55    5.93    8.27    6.82    5.44    0.58    1.83    0.38    0.30    0.30    1.24    1.60    1.61    1.65   15.57   77.02    0.00    0.05    0.58   15.53    0.92
 1981 308    30    60     1     0.0  251.3  223.5   27.8    8.34   26.21   20.90   13.80   10.11    6.26    8.12    7.77    5.93    0.65    1.93    0.38    0.31    0.31    1.23    1.59    1.58    1.62   16.21   77.74    0.00    0.05    0.59   16.16    1.03
 1981 309    31    60     1     0.0  251.7  224.0   27.7    8.00   24.09   20.81   13.63   10.50    6.09    7.74    8.02    6.94    0.70    2.02    0.39    0.31    0.32    1.22    1.57    1.56    1.60   16.73   78.33    0.00    0.05    0.59   16.69    1.15
 1981 310    32    60     1     8.7  243.2  215.6   27.6   11.16   22.59   20.10   12.80   10.25    5.81    6.94    7.47    7.22    0.71    2.09    0.39    0.32    0.33    1.22    1.56    1.55    1.58   17.27   78.96    0.17    0.05    0.60   17.22    1.22
 1981 311    33    60     1    10.9  241.5  214.4   27.1   14.63   22.28   19.88   12.44   10.05    5.70    6.70    7.41    7.24    0.50    1.99    0.40    0.32    0.33    1.21    1.55    1.53    1.55   17.83   79.96    0.22    0.05    0.61   17.78    1.34
 1981 312    34    60     1    12.1  240.7  214.0   26.7    8.42   16.25   20.39   13.33   11.75    6.35    6.88    7.53    7.48    0.39    1.91    0.39    0.33    0.33    1.20    1.53    1.51    1.53   18.41   80.96    0.22    0.05    0.62   18.36    1.40
 1981 313    35    60     1    15.1  238.0  211.4   26.6    5.41   13.62   19.37   13.03   12.04    6.76    7.02    7.73    7.76    0.50    1.99    0.39    0.33    0.34    1.19    1.52    1.49    1.51   18.93   81.50    0.36    0.05    0.62   18.88    1.42
 1981 314    36    60     1    27.7  225.7  199.1   26.6    6.86   13.09   18.32   12.19   11.46    6.38    6.40    7.09    7.34    0.55    2.05    0.40    0.34    0.35    1.18    1.50    1.48    1.50   19.41   82.02    0.51    0.05    0.63   19.36    1.48
 1981 315    37    60     1    30.7  223.1  196.7   26.4    8.74   13.18   17.96   11.86   11.20    6.20    6.19    7.00    7.30    0.42    2.09    0.40    0.34    0.35    1.17    1.49    1.46    1.48   19.90   82.72    0.56    0.05    0.64   19.85    1.57
 1981 316    38    60     1    30.7  223.4  197.5   26.0   10.59   13.38   17.81   11.77   11.13    6.20    6.19    7.00    7.31    0.35    1.98    0.39    0.34    0.35    1.16    1.48    1.45    1.46   20.38   83.58    0.57    0.05    0.65   20.33    1.71
[...]
 1982 098   185   180     2   136.5  248.9  237.7   11.1   10.20   20.42   18.86   21.84   15.77    6.84    6.81    6.78    7.29    0.33    0.83    0.25    0.22    0.20    0.53    0.61    0.57    0.55   45.24  181.59    1.42    0.05    1.36   45.19   13.97
 1982 099   186   180     2   141.2  243.9  232.9   10.9   11.93   20.08   18.87   21.37   15.50    6.71    6.53    6.50    6.93    0.23    0.77    0.24    0.22    0.20    0.53    0.61    0.57    0.55   45.28  181.79    1.42    0.05    1.37   45.23   14.35
 1982 100   187   180     2   141.2  243.5  232.8   10.8   15.55   19.40   18.93   20.96   15.28    6.67    6.51    6.48    6.90    0.16    0.71    0.24    0.21    0.19    0.53    0.61    0.56    0.55   45.32  182.01    1.42    0.05    1.38   45.28   15.53
 1982 101   188   180     2   141.2  242.4  231.8   10.6   19.32   18.48   18.81   20.48   15.01    6.64    6.47    6.46    6.88    0.13    0.67    0.23    0.21    0.19    0.52    0.60    0.56    0.54   45.43  182.22    1.42    0.05    1.39   45.38   17.44
 1982 102   189   180     2   141.2  240.7  230.2   10.5   23.19   17.39   18.51   19.93   14.70    6.59    6.44    6.43    6.85    0.15    0.64    0.23    0.21    0.19    0.52    0.60    0.56    0.54   45.66  182.47    1.42    0.05    1.40   45.61   20.16
 1982 103   190   180     2   141.2  238.4  227.9   10.5   23.16   16.66   17.90   19.78   14.60    6.59    6.44    6.43    6.85    0.17    0.63    0.23    0.21    0.19    0.52    0.60    0.55    0.54   46.05  182.81    1.42    0.05    1.40   46.00   22.63
 1982 104   191   180     2   141.2  236.4  225.9   10.5   23.30   16.07   17.32   19.63   14.51    6.59    6.45    6.44    6.86    0.15    0.63    0.24    0.21    0.20    0.52    0.60    0.55    0.54   46.53  183.24    1.42    0.05    1.41   46.48   25.57
 1982 105   192   180     2   141.2  234.0  223.5   10.5   23.51   15.44   16.61   19.43   14.37    6.59    6.46    6.44    6.86    0.11    0.61    0.24    0.22    0.20    0.52    0.60    0.55    0.53   47.08  183.76    1.43    0.05    1.41   47.03   28.28
 1982 106   193   180     2   141.2  231.9  221.5   10.4   23.79   14.95   15.96   19.22   14.24    6.59    6.46    6.45    6.87    0.08    0.58    0.25    0.23    0.21    0.52    0.60    0.55    0.53   47.68  184.36    1.44    0.05    1.41   47.64   30.45
 1982 107   194   180     2   141.2  230.3  219.9   10.4   24.08   14.64   15.44   19.04   14.12    6.59    6.47    6.46    6.88    0.08    0.55    0.25    0.23    0.22    0.52    0.59    0.55    0.53   48.27  184.94    1.44    0.05    1.41   48.23   32.38
 1982 108   195   180     2   141.2  228.9  218.5   10.4   24.38   14.35   14.97   18.87   14.01    6.59    6.48    6.46    6.88    0.08    0.52    0.25    0.24    0.22    0.52    0.59    0.55    0.53   48.77  185.43    1.45    0.05    1.42   48.72   34.66
 1982 109   196   180     2   141.2  227.0  216.7   10.3   24.68   14.04   14.42   18.64   13.85    6.59    6.49    6.47    6.89    0.07    0.48    0.25    0.24    0.22    0.52    0.59    0.54    0.53   49.21  185.90    1.46    0.05    1.42   49.17   37.53
 1982 110   197   180     2   160.2  205.6  195.2   10.3    2.26   11.47    9.01   13.15   18.30    6.70    6.18    6.61    8.40    0.16    0.45    0.25    0.24    0.23    0.52    0.59    0.54    0.53   49.64  186.31    1.46    0.05    1.42   49.59   38.39
 1982 111   198   180     2   176.3  189.1  178.4   10.7    3.30   10.84    8.75   11.99   16.59    6.55    5.61    5.86    7.04    0.36    0.61    0.27    0.26    0.24    0.52    0.59    0.54    0.52   50.20  186.49    1.56    0.05    1.43   50.15   39.44
 1982 112   199   180     2   181.8  183.0  172.2   10.8    4.52   10.39    8.66   11.80   16.10    6.32    5.37    5.56    6.54    0.29    0.67    0.27    0.27    0.25    0.52    0.59    0.54    0.52   50.71  186.93    1.60    0.05    1.43   50.66   40.99
 1982 113   200   180     2   181.8  181.9  171.1   10.7    5.80    9.79    8.49   11.72   15.85    6.29    5.35    5.55    6.53    0.25    0.68    0.27    0.27    0.25    0.52    0.59    0.54    0.52   51.17  187.37    1.61    0.05    1.44   51.12   43.13
 1982 114   201   180     2   181.8  180.1  169.5   10.7    6.85    9.11    8.22   11.59   15.55    6.26    5.34    5.54    6.52    0.22    0.66    0.27    0.27    0.25    0.52    0.59    0.54    0.52   51.58  187.78    1.62    0.05    1.45   51.53   45.87
 1982 115   202   180     2   181.8  177.8  167.2   10.6    7.69    8.36    7.84   11.40   15.19    6.23    5.33    5.53    6.51    0.19    0.62    0.27    0.27    0.25    0.52    0.59    0.53    0.52   51.97  188.18    1.63    0.05    1.45   51.92   47.65
 1982 116   203   180     2   181.8  176.4  165.8   10.5    8.19    7.99    7.59   11.26   14.96    6.21    5.33    5.53    6.50    0.19    0.60    0.27    0.27    0.25    0.52    0.58    0.53    0.52   52.37  188.57    1.64    0.05    1.46   52.33   50.08
 1982 117   204   180     2   200.8  155.3  144.9   10.4    1.84    3.95    4.99    6.96   10.91    7.15    5.79    5.31    7.16    0.16    0.57    0.27    0.27    0.25    0.52    0.58    0.53    0.51   52.78  188.99    1.65    0.05    1.46   52.73   51.30
 1982 118   205   180     2   207.6  147.7  136.9   10.7    1.47    3.52    4.68    6.39   10.24    6.68    5.62    5.25    6.70    0.32    0.67    0.29    0.28    0.26    0.52    0.58    0.53    0.51   53.25  189.15    1.77    0.05    1.47   53.21   51.30
 1982 119   206   180     2   215.5  140.1  129.2   10.9    0.73    2.44    4.11    5.02    8.35    6.46    5.92    5.56    6.51    0.42    0.77    0.30    0.29    0.27    0.52    0.58    0.53    0.51   53.65  189.33    1.86    0.05    1.47   53.60   52.57
 1982 120   207   180     2   221.7  132.8  121.8   11.0    0.72    2.10    3.74    4.64    7.80    5.94    5.62    5.45    6.22    0.48    0.78    0.31    0.29    0.27    0.52    0.58    0.53    0.51   53.97  189.50    1.96    0.05    1.47   53.92   54.58
 1982 121   208   180     2   231.5  121.3  110.3   11.0    0.81    1.79    3.30    4.26    7.05    5.42    5.14    5.01    5.49    0.50    0.74    0.32    0.30    0.28    0.52    0.58    0.53    0.51   54.32  189.72    2.04    0.05    1.47   54.27   56.64
 1982 122   209   180     2   234.9  116.1  105.4   10.8    1.07    1.57    2.95    4.12    6.73    5.24    4.94    4.81    5.20    0.34    0.64    0.31    0.30    0.28    0.51    0.58    0.53    0.51   54.65  190.13    2.07    0.05    1.48   54.61   58.90
 1982 123   210   180     2   234.9  114.2  103.6   10.6    1.24    1.35    2.59    3.97    6.47    5.21    4.93    4.81    5.20    0.27    0.56    0.31    0.31    0.28    0.51    0.58    0.52    0.51   55.03  190.51    2.08    0.05    1.48   54.99   61.29
 1982 124   211   180     2   234.9  112.3  101.8   10.6    1.37    1.19    2.22    3.78    6.15    5.16    4.92    4.81    5.20    0.23    0.60    0.31    0.31    0.28    0.51    0.57    0.52    0.50   55.52  191.00    2.09    0.05    1.49   55.47   63.09
 1982 125   212   180     2   234.9  111.1  100.6   10.5    1.59    1.18    2.01    3.66    5.90    5.13    4.91    4.80    5.19    0.18    0.55    0.31    0.30    0.28    0.51    0.57    0.52    0.50   56.09  191.56    2.10    0.05    1.49   56.05   63.09
 1982 126   213   180     2   236.2  110.4   99.9   10.5    0.62    0.98    1.88    3.04    5.61    5.21    5.12    4.96    5.25    0.18    0.57    0.31    0.30    0.28    0.51    0.57    0.52    0.50   56.70  192.16    2.11    0.05    1.49   56.65   63.55
 1982 127   214   180     2   237.9  108.8   98.0   10.8    0.58    0.97    1.77    2.81    5.25    4.95    5.08    5.03    5.30    0.38    0.70    0.33    0.32    0.29    0.51    0.57    0.52    0.50   57.34  192.43    2.13    0.05    1.49   57.30   65.43
 1982 128   215   180     2   242.7  102.8   91.8   11.0    0.69    0.83    1.51    2.57    4.71    4.58    4.78    4.83    5.07    0.46    0.73    0.34    0.33    0.30    0.52    0.57    0.52    0.50   58.04  192.81    2.15    0.05    1.50   58.00   67.92
 1982 129   216   180     2   242.7  101.0   90.3   10.6    1.30    0.73    1.23    2.41    4.37    4.53    4.76    4.83    5.07    0.17    0.59    0.34    0.34    0.30    0.51    0.57    0.52    0.50   58.71  193.57    2.16    0.05    1.50   58.67   69.66
 1982 130   217   180     2   242.7   99.8   89.3   10.5    1.39    0.72    1.08    2.31    4.13    4.48    4.74    4.83    5.07    0.21    0.52    0.33    0.34    0.30    0.51    0.56    0.51    0.50   59.32  194.11    2.17    0.05    1.51   59.27   69.66
 1982 131   218   180     2   242.7  100.4   89.9   10.5    1.69    0.88    1.13    2.35    4.16    4.49    4.74    4.83    5.07    0.17    0.55    0.33    0.33    0.30    0.51    0.56    0.51    0.49   59.91  194.72    2.18    0.05    1.51   59.86   69.66
 1982 132   219   180     2   243.3  100.5   90.0   10.4    0.79    0.95    1.35    2.30    4.34    4.49    4.74    4.82    5.07    0.17    0.53    0.32    0.32    0.29    0.51    0.56    0.51    0.49   60.56  195.42    2.18    0.05    1.51   60.51   69.66
 1982 133   220   180     2   244.0  100.5   89.7   10.8    0.87    1.00    1.33    2.17    4.23    4.44    4.76    4.85    5.08    0.37    0.69    0.34    0.34    0.31    0.52    0.56    0.51    0.49   61.28  195.75    2.19    0.05    1.52   61.24   69.66
 1982 134   221   180     2   244.7  100.5   89.4   11.1    1.11    1.11    1.34    2.10    4.12    4.36    4.74    4.87    5.09    0.43    0.82    0.36    0.35    0.32    0.52    0.56    0.51    0.49   62.03  196.24    2.20    0.05    1.52   61.99   69.66
 1982 135   222   180     2   245.7  100.2   89.1   11.1    0.88    1.25    1.44    2.02    4.01    4.27    4.73    4.90    5.12    0.44    0.79    0.35    0.37    0.33    0.52    0.56    0.51    0.49   62.72  196.93    2.21    0.05    1.52   62.67   69.66
 1982 136   223   180     2   246.8   99.8   88.5   11.3    1.12    1.34    1.44    1.95    3.89    4.16    4.69    4.90    5.13    0.45    0.89    0.37    0.38    0.34    0.52    0.56    0.51    0.49   63.37  197.38    2.22    0.05    1.53   63.32   69.66
 1982 137   224   180     2   247.9   99.2   87.8   11.4    1.06    1.46    1.49    1.90    3.79    4.06    4.64    4.89    5.13    0.47    0.97    0.39    0.39    0.35    0.52    0.56    0.51    0.49   63.97  197.83    2.25    0.05    1.53   63.92   69.66
 1982 138   225   180     2   248.9   98.7   87.2   11.6    1.24    1.54    1.53    1.89    3.73    3.98    4.57    4.86    5.11    0.48    1.04    0.40    0.40    0.36    0.53    0.56    0.50    0.49   64.55  198.28    2.27    0.05    1.53   64.51   69.66
 1982 139   226   180     2   249.3   98.9   87.5   11.4    1.61    1.84    1.58    1.92    3.76    3.98    4.57    4.86    5.00    0.45    0.93    0.39    0.40    0.36    0.53    0.56    0.50    0.48   65.19  199.05    2.29    0.05    1.54   65.14   69.66
 1982 140   227   180     2   249.3   99.6   88.6   11.0    2.38    2.12    1.64    1.98    3.81    3.99    4.57    4.86    5.00    0.07    0.82    0.37    0.39    0.36    0.53    0.56    0.50    0.48   65.84  200.11    2.30    0.05    1.54   65.79   69.66
 1982 141   228   180     2   250.2   99.4   88.5   10.9    0.94    1.84    1.97    1.98    3.80    3.97    4.60    4.89    5.07    0.21    0.73    0.36    0.38    0.35    0.53    0.56    0.50    0.48   66.48  200.83    2.30    0.05    1.54   66.43   69.66
 1982 142   229   180     2   251.3   98.9   87.7   11.2    1.13    1.89    1.95    1.92    3.63    3.84    4.55    4.90    5.11    0.34    0.82    0.38    0.39    0.36    0.53    0.56    0.50    0.48   67.14  201.23    2.32    0.05    1.55   67.09   69.66
 1982 143   230   180     2   254.4   96.4   85.4   11.1    1.69    2.15    1.98    1.90    3.51    3.66    4.34    4.73    4.96    0.13    0.76    0.40    0.40    0.37    0.53    0.56    0.50    0.48   67.81  202.02    2.34    0.05    1.55   67.76   69.66
 1982 144   231   180     2   254.4   97.0   86.1   11.0    2.00    2.36    2.03    1.95    3.55    3.66    4.34    4.73    4.96    0.18    0.70    0.38    0.39    0.36    0.54    0.56    0.50    0.48   68.42  202.73    2.35    0.05    1.56   68.37   69.66
 1982 145   232   180     2   254.9   97.0   86.2   10.8    1.09    2.12    2.34    2.07    3.59    3.65    4.35    4.74    4.98    0.16    0.66    0.37    0.38    0.36    0.54    0.56    0.50    0.48   68.95  203.37    2.36    0.05    1.56   68.90   69.66
 1982 146   233   180     2   258.4   94.0   83.0   11.1    0.50    1.29    1.98    1.70    2.73    3.07    4.28    5.16    5.41    0.28    0.74    0.39    0.39    0.36    0.54    0.56    0.50    0.48   69.46  203.66    2.37    0.05    1.56   69.42   69.66
 1982 147   234   180     2   262.6   90.3   79.0   11.3    0.57    1.26    1.95    1.68    2.64    2.78    3.88    4.89    5.41    0.33    0.81    0.41    0.40    0.37    0.54    0.56    0.50    0.47   69.98  203.99    2.44    0.05    1.57   69.94   69.66
 1982 148   235   180     2   270.2   83.2   71.8   11.4    0.87    1.36    1.94    1.63    2.52    2.55    3.43    4.31    4.83    0.35    0.87    0.42    0.41    0.38    0.54    0.56    0.50    0.47   70.55  204.40    2.50    0.05    1.57   70.51   69.66
 1982 149   236   180     2   273.0   80.9   69.7   11.2    0.77    1.07    1.67    1.45    2.19    2.39    3.38    4.35    4.93    0.12    0.78    0.41    0.42    0.39    0.55    0.56    0.50    0.47   71.14  205.22    2.52    0.05    1.58   71.09   69.66
 1982 150   237   180     2   276.3   78.2   66.8   11.4    0.88    1.17    1.64    1.42    2.13    2.17    3.10    4.15    4.87    0.26    0.84    0.42    0.43    0.40    0.55    0.56    0.50    0.47   71.75  205.57    2.59    0.05    1.58   71.70   69.95
 1982 151   238   180     2   279.4   75.4   64.2   11.2    0.87    1.24    1.66    1.43    2.09    2.05    2.90    3.93    4.72    0.12    0.72    0.41    0.44    0.41    0.55    0.56    0.50    0.47   72.39  206.38    2.65    0.05    1.59   72.34   72.36
 1982 152   239   180     2   285.9   67.0   55.9   11.1    0.66    0.89    1.25    1.24    1.77    1.82    2.55    3.47    4.20    0.26    0.55    0.42    0.45    0.42    0.55    0.56    0.50    0.47   72.99  206.69    2.70    0.05    1.59   72.94   73.59
 1982 153   240   180     2   286.7   65.6   54.6   11.0    0.91    0.86    1.09    1.20    1.68    1.81    2.49    3.39    4.13    0.11    0.54    0.41    0.45    0.42    0.54    0.56    0.50    0.47   73.57  207.38    2.71    0.05    1.59   73.53   75.71
 1982 154   241   180     2   287.0   63.6   52.9   10.7    0.83    0.68    0.83    1.11    1.53    1.77    2.47    3.39    4.05    0.17    0.37    0.40    0.45    0.41    0.53    0.55    0.49    0.47   74.09  207.84    2.72    0.05    1.60   74.04   77.65
 1982 155   242   180     2   287.0   62.1   51.5   10.7    0.51    0.52    0.60    1.01    1.36    1.74    2.45    3.39    4.05    0.25    0.40    0.39    0.46    0.40    0.52    0.54    0.49    0.47   74.54  208.24    2.72    0.05    1.60   74.49   79.37
 1982 156   243   180     2   287.0   60.8   50.3   10.5    0.61    0.61    0.38    0.88    1.14    1.68    2.41    3.39    4.05    0.29    0.43    0.38    0.44    0.39    0.50    0.53    0.49    0.47   74.95  208.65    2.72    0.05    1.60   74.90   80.83
 1982 157   244   180     2   287.0   59.8   49.4   10.4    0.90    0.34    0.42    0.79    0.98    1.63    2.38    3.38    4.05    0.16    0.45    0.37    0.43    0.38    0.50    0.52    0.49    0.47   75.36  209.18    2.73    0.05    1.61   75.31   81.97
 1982 158   245   180     2   287.0   59.1   48.8   10.3    0.45    0.49    0.52    0.71    0.86    1.58    2.34    3.38    4.05    0.13    0.45    0.36    0.42    0.38    0.50    0.51    0.49    0.47   75.80  209.69    2.73    0.05    1.61   75.75   82.80
 1982 159   246   180     2   287.0   58.8   48.5   10.3    0.62    0.53    0.57    0.66    0.76    1.53    2.31    3.38    4.05    0.14    0.54    0.36    0.40    0.37    0.50    0.50    0.49    0.46   76.33  210.17    2.73    0.05    1.62   76.28   83.94
 1982 160   247   180     2   287.0   58.2   48.0   10.2    0.50    0.63    0.46    0.61    0.78    1.50    2.28    3.37    4.05    0.11    0.51    0.35    0.39    0.36    0.50    0.50    0.49    0.46   76.93  210.89    2.73    0.05    1.62   76.88   85.59
 1982 161   248   180     2   288.1   56.1   46.1   10.0    0.29    0.30    0.47    0.53    0.73    1.39    2.21    3.30    4.00    0.23    0.30    0.37    0.40    0.35    0.50    0.50    0.49    0.46   77.59  211.26    2.74    0.05    1.63   77.54   86.33
 1982 162   249   180     2   288.1   56.0   46.1    9.9    0.74    0.43    0.53    0.47    0.66    1.35    2.18    3.29    3.99    0.02    0.35    0.35    0.41    0.34    0.50    0.50    0.48    0.46   78.25  212.02    2.74    0.05    1.64   78.20   86.85
 1982 163   250   180     2   288.1   56.1   46.1   10.0    0.79    0.56    0.58    0.52    0.60    1.32    2.16    3.29    3.99    0.17    0.37    0.34    0.39    0.33    0.50    0.50    0.48    0.46   78.84  212.56    2.74    0.05    1.64   78.79   87.96
 1982 164   251   180     2   288.1   55.5   45.7    9.9    0.70    0.69    0.40    0.57    0.54    1.29    2.13    3.29    4.00    0.06    0.37    0.33    0.38    0.32    0.51    0.50    0.48    0.46   79.38  213.22    2.74    0.05    1.64   79.34   88.72
 1982 165   252   180     2   288.1   55.3   45.4    9.8    0.78    0.54    0.44    0.53    0.57    1.26    2.11    3.30    4.00    0.09    0.37    0.33    0.36    0.32    0.51    0.50    0.48    0.46   79.88  213.73    2.74    0.05    1.65   79.83   89.26
 1982 166   253   180     2   288.1   55.2   45.4    9.8    0.33    0.58    0.58    0.58    0.57    1.24    2.09    3.30    4.01    0.07    0.37    0.32    0.35    0.31    0.51    0.50    0.48    0.46   80.36  214.27    2.74    0.05    1.65   80.32   90.03
 1982 167   254   180     2   288.1   55.0   45.0   10.0    0.40    0.40    0.57    0.50    0.64    1.19    2.11    3.28    3.99    0.15    0.46    0.34    0.37    0.33    0.51    0.50    0.48    0.46   80.92  214.59    2.74    0.05    1.66   80.87   91.01
 1982 168   255   180     2   288.5   54.2   44.2   10.0    0.74    0.54    0.33    0.50    0.59    1.14    2.05    3.23    3.98    0.09    0.44    0.36    0.38    0.34    0.51    0.50    0.48    0.46   81.50  215.15    2.74    0.05    1.66   81.45   91.48
 1982 169   256   180     2   288.5   54.3   44.4    9.9    1.04    0.66    0.39    0.54    0.57    1.13    2.03    3.21    3.96    0.08    0.42    0.35    0.36    0.33    0.51    0.50    0.48    0.45   82.06  215.80    2.74    0.05    1.67   82.02   92.32
 1982 170   257   180     2   288.5   54.0   44.2    9.8    1.03    0.49    0.45    0.58    0.65    1.11    2.00    3.20    3.95    0.09    0.39    0.34    0.35    0.32    0.50    0.50    0.48    0.45   82.61  216.43    2.74    0.05    1.67   82.56   93.04
 1982 171   258   180     2   288.5   53.8   44.1    9.7    0.93    0.63    0.50    0.55    0.58    1.09    1.98    3.20    3.95    0.07    0.38    0.33    0.34    0.32    0.50    0.50    0.47    0.45   83.13  217.02    2.74    0.05    1.67   83.08   93.58
 1982 172   259   180     2   288.5   53.8   44.1    9.6    0.87    0.77    0.55    0.59    0.52    1.06    1.96    3.20    3.96    0.06    0.37    0.32    0.33    0.31    0.50    0.50    0.47    0.45   83.64  217.59    2.74    0.05    1.68   83.60   94.40
 1982 173   260   180     2   288.5   53.5   43.9    9.6    0.41    0.68    0.66    0.57    0.57    1.04    1.94    3.21    3.96    0.05    0.35    0.31    0.32    0.31    0.50    0.50    0.47    0.45   84.17  218.18    2.74    0.05    1.68   84.12   95.38
 1982 174   261   180     2   288.5   53.1   43.3    9.8    0.58    0.67    0.47    0.51    0.57    1.04    1.93    3.19    3.94    0.14    0.43    0.34    0.34    0.30    0.50    0.50    0.47    0.45   84.75  218.58    2.74    0.05    1.68   84.71   96.17
