*SOIL WATER DAILY OUTPUT FILE

*DSSAT Cropping System Model Ver. 4.5.1.023 -Stub         DEC 04, 2014; 01:36:04
                                                                                
*RUN   1        : DRYLAND  - 0 KG N/HA      CSCER045 KSAS8101    1              
 MODEL          : CSCER045 - Wheat                                              
 EXPERIMENT     : KSAS8101 WH N RESPONSE,KANSAS STATE  3FE(N)*2IR  (DSSAT3)     
 DATA PATH      :                                                               
 TREATMENT  1   : DRYLAND  - 0 KG N/HA      CSCER045                            
  
!                                                                                                 Soil water content (mm3/mm3) by soil depth (cm):
!                                                                                                 0-5    5-15   15-30   30-45   45-60   60-90  90-120 120-150 150-180
@YEAR DOY   DAS  SWTD  SWXD   ROFC   DRNC   PREC  IR#C  IRRC  DTWT    MWTD  TDFD  TDFC   ROFD    SW1D    SW2D    SW3D    SW4D    SW5D    SW6D    SW7D    SW8D    SW9D
 1981 278     0   163    91      0      0      0     0     0     0    0.00   0.0   0.0   0.00   0.205   0.205   0.170   0.092   0.092   0.065   0.066   0.066   0.066
 1981 279     1   162    90      0      0      0     0     0    90    0.00   0.0   0.0   0.00   0.189   0.204   0.170   0.092   0.092   0.065   0.066   0.066   0.066
 1981 280     2   161    89      0      0      0     0     0   180    0.00   0.0   0.0   0.00   0.174   0.203   0.170   0.092   0.092   0.065   0.066   0.066   0.066
 1981 281     3   160    88      0      0      0     0     0   180    0.00   0.0   0.0   0.00   0.160   0.202   0.169   0.092   0.092   0.065   0.066   0.066   0.066
 1981 282     4   159    88      0      0      0     0     0   180    0.00   0.0   0.0   0.00   0.149   0.201   0.169   0.092   0.092   0.065   0.066   0.066   0.066
 1981 283     5   159    87      0      0      0     0     0   180    0.00   0.0   0.0   0.00   0.138   0.200   0.169   0.092   0.092   0.065   0.066   0.066   0.066
 1981 284     6   158    86      0      0      0     0     0   180    0.00   0.0   0.0   0.00   0.127   0.199   0.169   0.092   0.092   0.065   0.066   0.066   0.066
 1981 285     7   164    92      0      0      6     0     0   180    0.00   0.0   0.0   0.00   0.232   0.206   0.169   0.092   0.092   0.065   0.066   0.066   0.066
 1981 286     8   164    92      0      0      6     0     0   180    0.00   0.0   0.0   0.00   0.225   0.207   0.168   0.092   0.092   0.065   0.066   0.066   0.066
 1981 287     9   164    92      0      0      8     0     0   180    0.00   0.0   0.0   0.00   0.230   0.213   0.167   0.091   0.091   0.065   0.066   0.066   0.066
 1981 288    10   162    91      0      0      8     0     0   180    0.00   0.0   0.0   0.00   0.218   0.211   0.165   0.090   0.091   0.064   0.066   0.066   0.066
 1981 289    11   162    90      0      0      8     0     0   180    0.00   0.0   0.0   0.00   0.205   0.211   0.165   0.090   0.091   0.064   0.066   0.066   0.066
 1981 290    12   171   100      0      0     21     0     0   180    0.00   0.0   0.0   0.00   0.229   0.238   0.208   0.089   0.090   0.064   0.065   0.065   0.065
 1981 291    13   169    97      0      0     21     0     0   180    0.00   0.0   0.0   0.00   0.211   0.224   0.211   0.089   0.089   0.064   0.065   0.065   0.065
 1981 292    14   168    96      0      0     21     0     0   180    0.00   0.0   0.0   0.00   0.195   0.223   0.210   0.088   0.089   0.064   0.065   0.065   0.065
 1981 293    15   167    95      0      0     21     0     0   180    0.00   0.0   0.0   0.00   0.179   0.222   0.210   0.088   0.089   0.064   0.065   0.065   0.065
 1981 294    16   166    94      0      0     21     0     0   180    0.00   0.0   0.0   0.00   0.165   0.221   0.210   0.088   0.089   0.064   0.065   0.065   0.065
 1981 295    17   165    94      0      0     21     0     0   180    0.00   0.0   0.0   0.00   0.152   0.220   0.210   0.088   0.089   0.064   0.065   0.065   0.065
 1981 296    18   165    93      0      0     21     0     0   180    0.00   0.0   0.0   0.00   0.141   0.219   0.209   0.088   0.089   0.064   0.065   0.065   0.065
 1981 297    19   164    92      0      0     21     0     0   180    0.00   0.0   0.0   0.00   0.130   0.218   0.209   0.088   0.089   0.064   0.065   0.065   0.065
 1981 298    20   166    94      0      0     24     0     0   180    0.00   0.0   0.0   0.00   0.178   0.216   0.209   0.088   0.089   0.064   0.065   0.065   0.065
 1981 299    21   166    94      0      0     24     0     0   180    0.00   0.0   0.0   0.00   0.179   0.215   0.209   0.088   0.089   0.064   0.065   0.065   0.065
 1981 300    22   165    93      0      0     24     0     0   180    0.00   0.0   0.0   0.00   0.165   0.214   0.209   0.088   0.089   0.064   0.065   0.065   0.065
 1981 301    23   164    93      0      0     24     0     0   180    0.00   0.0   0.0   0.00   0.152   0.213   0.208   0.088   0.089   0.064   0.065   0.065   0.065
 1981 302    24   164    92      0      0     24     0     0   180    0.00   0.0   0.0   0.00   0.140   0.212   0.208   0.088   0.089   0.064   0.065   0.065   0.065
 1981 303    25   163    91      0      0     24     0     0   180    0.00   0.0   0.0   0.00   0.130   0.210   0.208   0.088   0.089   0.063   0.065   0.065   0.065
 1981 304    26   163    91      0      0     25     0     0   180    0.00   0.0   0.0   0.00   0.134   0.210   0.208   0.088   0.089   0.063   0.065   0.065   0.065
 1981 305    27   221   149     10      0     93     0     0   180    0.00   0.0   0.0   9.99   0.245   0.244   0.259   0.170   0.170   0.102   0.082   0.065   0.065
 1981 306    28   223   151     10      0     96     0     0   180    0.00   0.0   0.0   0.00   0.245   0.243   0.255   0.169   0.169   0.100   0.090   0.070   0.065
 1981 307    29   222   150     10      0     96     0     0   180    0.00   0.0   0.0   0.00   0.230   0.232   0.248   0.165   0.167   0.098   0.093   0.079   0.065
 1981 308    30   235   163     10      0    110     0     0   180    0.00   0.0   0.0   0.10   0.244   0.243   0.259   0.170   0.170   0.105   0.098   0.090   0.070
 1981 309    31   235   164     10      0    113     0     0   180    0.00   0.0   0.0   0.00   0.234   0.237   0.252   0.168   0.168   0.101   0.097   0.094   0.081
 1981 310    32   225   154     10      7    113     0     0   180    0.00   0.0   0.0   0.00   0.216   0.225   0.242   0.158   0.159   0.094   0.091   0.090   0.087
 1981 311    33   222   150     10      9    113     0     0   180    0.00   0.0   0.0   0.00   0.206   0.221   0.239   0.155   0.155   0.092   0.088   0.089   0.087
 1981 312    34   239   167     10     11    131     0     0   179    0.00   0.0   0.0   0.17   0.247   0.245   0.260   0.170   0.170   0.100   0.093   0.091   0.089
 1981 313    35   242   170     10     13    139     0     0   177    0.00   0.0   0.0   0.02   0.237   0.240   0.257   0.169   0.169   0.104   0.097   0.095   0.093
 1981 314    36   227   156     10     25    139     0     0   179    0.00   0.0   0.0   0.00   0.218   0.226   0.244   0.159   0.159   0.096   0.091   0.090   0.089
 1981 315    37   223   151     10     28    139     0     0   179    0.00   0.0   0.0   0.00   0.207   0.222   0.239   0.155   0.155   0.093   0.088   0.090   0.089
 1981 316    38   220   149     10     28    139     0     0   179    0.00   0.0   0.0   0.00   0.195   0.217   0.236   0.153   0.154   0.092   0.088   0.089   0.089
 1981 317    39   218   146     10     28    139     0     0   179    0.00   0.0   0.0   0.00   0.185   0.212   0.233   0.152   0.153   0.092   0.088   0.089   0.088
 1981 318    40   216   145     10     28    139     0     0   179    0.00   0.0   0.0   0.00   0.177   0.208   0.231   0.151   0.152   0.091   0.087   0.089   0.088
 1981 319    41   215   143     10     28    139     0     0   179    0.00   0.0   0.0   0.00   0.169   0.204   0.228   0.150   0.152   0.091   0.087   0.089   0.088
 1981 320    42   214   142     10     28    139     0     0   179    0.00   0.0   0.0   0.00   0.155   0.202   0.227   0.150   0.151   0.091   0.087   0.089   0.088
 1981 321    43   213   141     10     28    139     0     0   179    0.00   0.0   0.0   0.00   0.142   0.200   0.227   0.150   0.151   0.091   0.087   0.089   0.088
 1981 322    44   212   140     10     28    139     0     0   179    0.00   0.0   0.0   0.00   0.131   0.199   0.226   0.150   0.151   0.091   0.087   0.089   0.088
 1981 323    45   211   140     10     28    139     0     0   179    0.00   0.0   0.0   0.00   0.126   0.198   0.226   0.150   0.151   0.091   0.087   0.089   0.088
 1981 324    46   211   139     10     28    139     0     0   179    0.00   0.0   0.0   0.00   0.116   0.197   0.226   0.150   0.151   0.091   0.087   0.089   0.088
 1981 325    47   210   138     10     28    139     0     0   179    0.00   0.0   0.0   0.00   0.107   0.195   0.225   0.150   0.151   0.091   0.087   0.089   0.088
 1981 326    48   209   138     10     28    139     0     0   179    0.00   0.0   0.0   0.00   0.100   0.194   0.224   0.150   0.151   0.091   0.087   0.089   0.088
 1981 327    49   209   137     10     28    139     0     0   179    0.00   0.0   0.0   0.00   0.093   0.192   0.224   0.149   0.151   0.091   0.087   0.089   0.088
 1981 328    50   208   136     10     28    139     0     0   179    0.00   0.0   0.0   0.00   0.086   0.190   0.223   0.149   0.151   0.091   0.087   0.088   0.088
 1981 329    51   208   136     10     28    139     0     0   179    0.00   0.0   0.0   0.00   0.081   0.189   0.223   0.149   0.151   0.091   0.087   0.088   0.088
 1981 330    52   207   135     10     28    139     0     0   179    0.00   0.0   0.0   0.00   0.075   0.187   0.222   0.149   0.151   0.091   0.087   0.088   0.088
 1981 331    53   207   135     10     28    139     0     0   179    0.00   0.0   0.0   0.00   0.071   0.186   0.222   0.149   0.151   0.091   0.087   0.088   0.088
 1981 332    54   206   134     10     28    139     0     0   179    0.00   0.0   0.0   0.00   0.066   0.184   0.221   0.149   0.151   0.091   0.087   0.088   0.088
 1981 333    55   206   134     10     28    139     0     0   179    0.00   0.0   0.0   0.00   0.062   0.183   0.221   0.149   0.151   0.091   0.087   0.088   0.088
 1981 334    56   225   153     10     28    158     0     0   179    0.00   0.0   0.0   0.00   0.246   0.245   0.242   0.153   0.151   0.091   0.087   0.088   0.088
 1981 335    57   236   165     11     29    171     0     0   179    0.00   0.0   0.0   0.24   0.246   0.244   0.260   0.170   0.170   0.097   0.090   0.090   0.089
 1981 336    58   227   155     11     37    171     0     0   179    0.00   0.0   0.0   0.00   0.226   0.230   0.246   0.160   0.160   0.093   0.088   0.089   0.089
 1981 337    59   223   152     11     39    171     0     0   179    0.00   0.0   0.0   0.00   0.218   0.223   0.240   0.155   0.156   0.093   0.088   0.089   0.089
 1981 338    60   222   150     11     39    171     0     0   179    0.00   0.0   0.0   0.00   0.209   0.219   0.238   0.154   0.155   0.092   0.088   0.089   0.088
 1981 339    61   221   149     11     39    171     0     0   179    0.00   0.0   0.0   0.00   0.206   0.218   0.237   0.154   0.155   0.092   0.088   0.089   0.088
 1981 340    62   220   148     11     39    171     0     0   179    0.00   0.0   0.0   0.00   0.200   0.215   0.235   0.153   0.154   0.092   0.087   0.089   0.088
 1981 341    63   218   146     11     39    171     0     0   179    0.00   0.0   0.0   0.00   0.191   0.211   0.233   0.152   0.153   0.092   0.087   0.089   0.088
 1981 342    64   217   145     11     39    171     0     0   179    0.00   0.0   0.0   0.00   0.185   0.208   0.231   0.151   0.153   0.091   0.087   0.088   0.088
 1981 343    65   215   144     11     39    171     0     0   180    0.00   0.0   0.0   0.00   0.178   0.205   0.229   0.151   0.152   0.091   0.087   0.088   0.088
 1981 344    66   215   143     11     39    171     0     0   180    0.00   0.0   0.0   0.00   0.178   0.205   0.229   0.151   0.152   0.091   0.087   0.088   0.088
 1981 345    67   215   143     11     39    171     0     0   180    0.00   0.0   0.0   0.00   0.177   0.204   0.228   0.150   0.152   0.091   0.087   0.088   0.088
 1981 346    68   215   143     11     39    171     0     0   180    0.00   0.0   0.0   0.00   0.176   0.204   0.228   0.150   0.152   0.091   0.087   0.088   0.088
 1981 347    69   215   143     11     39    171     0     0   180    0.00   0.0   0.0   0.00   0.175   0.204   0.228   0.150   0.152   0.091   0.087   0.088   0.088
 1981 348    70   214   143     11     39    172     0     0   180    0.00   0.0   0.0   0.00   0.175   0.203   0.228   0.150   0.152   0.091   0.087   0.088   0.088
 1981 349    71   214   142     11     39    172     0     0   180    0.00   0.0   0.0   0.00   0.171   0.202   0.227   0.150   0.152   0.091   0.087   0.088   0.088
 1981 350    72   214   142     11     39    172     0     0   180    0.00   0.0   0.0   0.00   0.170   0.202   0.227   0.150   0.152   0.091   0.087   0.088   0.088
 1981 351    73   214   142     11     39    176     0     0   180    0.00   0.0   0.0   0.00   0.170   0.202   0.227   0.150   0.152   0.091   0.087   0.088   0.088
 1981 352    74   214   142     11     39    176     0     0   180    0.00   0.0   0.0   0.00   0.169   0.202   0.227   0.150   0.152   0.091   0.087   0.088   0.088
 1981 353    75   214   142     11     39    176     0     0   180    0.01   0.0   0.0   0.00   0.167   0.202   0.227   0.150   0.152   0.091   0.087   0.088   0.088
 1981 354    76   217   145     11     39    176     0     0   180    0.02   0.0   0.0   0.00   0.220   0.202   0.227   0.150   0.152   0.091   0.087   0.088   0.088
 1981 355    77   219   147     11     39    177     0     0   180    0.03   0.0   0.0   0.00   0.241   0.211   0.227   0.150   0.152   0.091   0.087   0.088   0.088
 1981 356    78   218   147     11     39    177     0     0   180    0.03   0.0   0.0   0.00   0.231   0.216   0.227   0.150   0.152   0.091   0.087   0.088   0.088
 1981 357    79   217   145     11     39    177     0     0   180    0.02   0.0   0.0   0.00   0.220   0.215   0.225   0.149   0.151   0.091   0.086   0.088   0.087
 1981 358    80   216   144     11     39    177     0     0   180    0.02   0.0   0.0   0.00   0.202   0.213   0.225   0.149   0.151   0.091   0.086   0.088   0.087
 1981 359    81   215   143     11     39    177     0     0   180    0.02   0.0   0.0   0.00   0.186   0.212   0.225   0.149   0.151   0.091   0.086   0.088   0.087
 1981 360    82   214   143     11     39    177     0     0   180    0.02   0.0   0.0   0.00   0.177   0.212   0.225   0.149   0.151   0.091   0.086   0.088   0.087
 1981 361    83   214   143     11     39    177     0     0   180    0.02   0.0   0.0   0.00   0.174   0.211   0.225   0.149   0.151   0.091   0.086   0.088   0.087
 1981 362    84   214   142     11     39    177     0     0   180    0.02   0.0   0.0   0.00   0.170   0.211   0.225   0.149   0.151   0.091   0.086   0.088   0.087
 1981 363    85   213   142     11     39    177     0     0   180    0.03   0.0   0.0   0.00   0.162   0.210   0.224   0.149   0.151   0.091   0.086   0.088   0.087
 1981 364    86   213   141     11     39    177     0     0   180    0.03   0.0   0.0   0.00   0.150   0.209   0.224   0.149   0.151   0.091   0.086   0.088   0.087
 1981 365    87   212   140     11     39    177     0     0   180    0.02   0.0   0.0   0.00   0.138   0.208   0.224   0.149   0.151   0.091   0.086   0.088   0.087
 1982 001    88   212   140     11     39    177     0     0   180    0.02   0.0   0.0   0.00   0.137   0.208   0.224   0.149   0.151   0.091   0.086   0.088   0.087
 1982 002    89   214   142     11     39    179     0     0   180    0.03   0.0   0.0   0.00   0.175   0.208   0.224   0.149   0.151   0.091   0.086   0.088   0.087
 1982 003    90   214   142     11     39    180     0     0   180    0.03   0.0   0.0   0.00   0.175   0.207   0.224   0.149   0.151   0.091   0.086   0.088   0.087
 1982 004    91   219   147     11     39    184     0     0   180    0.03   0.0   0.0   0.00   0.237   0.226   0.223   0.149   0.151   0.091   0.086   0.088   0.087
 1982 005    92   217   146     11     39    184     0     0   180    0.03   0.0   0.0   0.00   0.222   0.223   0.224   0.148   0.150   0.090   0.086   0.088   0.087
 1982 006    93   217   146     11     39    184     0     0   180    0.02   0.0   0.0   0.00   0.222   0.223   0.224   0.148   0.150   0.090   0.086   0.088   0.087
 1982 007    94   217   145     11     39    184     0     0   180    0.02   0.0   0.0   0.00   0.220   0.223   0.224   0.148   0.150   0.090   0.086   0.088   0.087
 1982 008    95   216   144     11     39    184     0     0   180    0.02   0.0   0.0   0.00   0.202   0.222   0.224   0.148   0.150   0.090   0.086   0.088   0.087
 1982 009    96   216   144     11     39    184     0     0   180    0.02   0.0   0.0   0.00   0.200   0.222   0.224   0.148   0.150   0.090   0.086   0.088   0.087
 1982 010    97   216   144     11     39    184     0     0   180    0.02   0.0   0.0   0.00   0.199   0.222   0.224   0.148   0.150   0.090   0.086   0.088   0.087
 1982 011    98   216   144     11     39    184     0     0   180    0.02   0.0   0.0   0.00   0.198   0.221   0.224   0.148   0.150   0.090   0.086   0.088   0.087
 1982 012    99   216   144     11     39    184     0     0   180    0.02   0.0   0.0   0.00   0.197   0.221   0.224   0.148   0.150   0.090   0.086   0.088   0.087
 1982 013   100   216   144     11     39    187     0     0   180    0.02   0.0   0.0   0.00   0.196   0.221   0.224   0.148   0.150   0.090   0.086   0.088   0.087
 1982 014   101   217   146     11     39    187     0     0   180    0.03   0.0   0.0   0.00   0.220   0.225   0.225   0.148   0.150   0.090   0.086   0.088   0.087
 1982 015   102   217   145     11     39    187     0     0   180    0.03   0.0   0.0   0.00   0.215   0.224   0.224   0.147   0.150   0.090   0.086   0.088   0.087
 1982 016   103   217   145     11     39    187     0     0   180    0.03   0.0   0.0   0.00   0.214   0.223   0.224   0.147   0.150   0.090   0.086   0.088   0.087
 1982 017   104   216   145     11     39    187     0     0   180    0.03   0.0   0.0   0.00   0.210   0.223   0.224   0.147   0.150   0.090   0.086   0.088   0.087
 1982 018   105   215   144     11     39    187     0     0   180    0.03   0.0   0.0   0.00   0.193   0.222   0.224   0.147   0.150   0.090   0.086   0.088   0.087
 1982 019   106   214   143     11     39    187     0     0   180    0.03   0.0   0.0   0.00   0.178   0.221   0.224   0.147   0.150   0.090   0.086   0.088   0.087
 1982 020   107   214   143     11     39    187     0     0   180    0.03   0.0   0.0   0.00   0.177   0.221   0.224   0.147   0.150   0.090   0.086   0.088   0.087
 1982 021   108   214   143     11     39    187     0     0   180    0.03   0.0   0.0   0.00   0.176   0.221   0.224   0.147   0.150   0.090   0.086   0.088   0.087
 1982 022   109   216   144     11     39    189     0     0   180    0.03   0.0   0.0   0.00   0.208   0.220   0.223   0.147   0.150   0.090   0.086   0.088   0.087
 1982 023   110   216   144     11     39    200     0     0   180    0.03   0.0   0.0   0.00   0.206   0.220   0.223   0.147   0.150   0.090   0.086   0.088   0.087
 1982 024   111   215   144     11     39    200     0     0   180    0.03   0.0   0.0   0.00   0.202   0.220   0.223   0.147   0.150   0.090   0.086   0.088   0.087
 1982 025   112   219   148     11     39    200     0     0   180    0.03   0.0   0.0   0.00   0.239   0.233   0.233   0.146   0.149   0.090   0.086   0.087   0.087
 1982 026   113   224   152     11     39    200     0     0   180    0.03   0.0   0.0   0.00   0.238   0.241   0.246   0.155   0.151   0.089   0.086   0.087   0.087
 1982 027   114   221   149     11     39    200     0     0   180    0.03   0.0   0.0   0.00   0.220   0.228   0.240   0.154   0.153   0.091   0.087   0.087   0.087
 1982 028   115   220   148     11     39    200     0     0   180    0.03   0.0   0.0   0.00   0.212   0.225   0.238   0.153   0.153   0.090   0.087   0.087   0.087
 1982 029   116   220   148     11     39    200     0     0   180    0.03   0.0   0.0   0.00   0.210   0.224   0.238   0.153   0.153   0.090   0.087   0.087   0.087
 1982 030   117   224   153     11     39    206     0     0   180    0.03   0.0   0.0   0.00   0.246   0.237   0.244   0.156   0.156   0.090   0.086   0.087   0.087
 1982 031   118   223   151     11     40    206     0     0   180    0.03   0.0   0.0   0.00   0.233   0.229   0.241   0.156   0.156   0.091   0.087   0.087   0.087
 1982 032   119   222   150     11     41    206     0     0   180    0.03   0.0   0.0   0.00   0.226   0.226   0.241   0.156   0.155   0.091   0.087   0.087   0.087
 1982 033   120   222   150     11     41    206     0     0   180    0.03   0.0   0.0   0.00   0.225   0.226   0.241   0.156   0.155   0.091   0.087   0.087   0.087
 1982 034   121   222   150     11     41    207     0     0   180    0.03   0.0   0.0   0.00   0.225   0.225   0.241   0.155   0.155   0.091   0.087   0.087   0.087
 1982 035   122   222   150     11     41    207     0     0   180    0.03   0.0   0.0   0.00   0.225   0.225   0.241   0.155   0.155   0.091   0.087   0.087   0.087
 1982 036   123   222   150     11     41    213     0     0   180    0.03   0.0   0.0   0.00   0.224   0.225   0.241   0.155   0.155   0.091   0.087   0.087   0.087
 1982 037   124   222   150     11     41    213     0     0   180    0.03   0.0   0.0   0.00   0.223   0.225   0.240   0.155   0.155   0.091   0.087   0.087   0.087
 1982 038   125   223   151     11     41    213     0     0   180    0.03   0.0   0.0   0.00   0.240   0.228   0.241   0.155   0.155   0.092   0.087   0.087   0.087
 1982 039   126   223   151     11     41    213     0     0   180    0.03   0.0   0.0   0.00   0.231   0.228   0.241   0.155   0.155   0.092   0.087   0.087   0.087
 1982 040   127   223   151     11     41    222     0     0   180    0.03   0.0   0.0   0.00   0.227   0.228   0.241   0.155   0.155   0.092   0.087   0.087   0.087
 1982 041   128   222   151     11     41    222     0     0   180    0.03   0.0   0.0   0.00   0.226   0.227   0.241   0.155   0.155   0.092   0.087   0.087   0.087
 1982 042   129   222   150     11     41    222     0     0   180    0.03   0.0   0.0   0.00   0.224   0.227   0.240   0.155   0.155   0.092   0.087   0.087   0.087
 1982 043   130   236   164     11     41    230     0     0   178    0.03   0.0   0.0   0.01   0.245   0.244   0.259   0.170   0.170   0.096   0.090   0.089   0.090
 1982 044   131   237   165     11     43    230     0     0   178    0.03   0.0   0.0   0.00   0.240   0.242   0.256   0.169   0.169   0.098   0.092   0.091   0.090
 1982 045   132   237   166     11     45    230     0     0   177    0.03   0.0   0.0   0.00   0.237   0.241   0.255   0.169   0.169   0.098   0.093   0.092   0.091
 1982 046   133   227   155     11     54    230     0     0   179    0.03   0.0   0.0   0.00   0.226   0.230   0.245   0.160   0.160   0.094   0.089   0.089   0.089
 1982 047   134   226   154     11     55    231     0     0   179    0.03   0.0   0.0   0.00   0.226   0.227   0.243   0.158   0.159   0.093   0.089   0.089   0.089
 1982 048   135   225   154     11     56    231     0     0   179    0.03   0.0   0.0   0.00   0.225   0.227   0.242   0.155   0.156   0.093   0.089   0.089   0.089
 1982 049   136   227   155     11     57    235     0     0   179    0.03   0.0   0.0   0.00   0.237   0.236   0.244   0.158   0.157   0.093   0.089   0.089   0.089
 1982 050   137   222   151     11     59    235     0     0   179    0.03   0.0   0.0   0.00   0.214   0.223   0.238   0.154   0.155   0.092   0.088   0.089   0.089
 1982 051   138   219   148     11     59    235     0     0   179    0.03   0.0   0.0   0.00   0.198   0.217   0.234   0.152   0.154   0.091   0.088   0.088   0.088
 1982 052   139   216   145     11     59    235     0     0   179    0.03   0.0   0.0   0.00   0.183   0.210   0.230   0.150   0.152   0.091   0.087   0.088   0.088
 1982 053   140   215   144     11     59    235     0     0   179    0.03   0.0   0.0   0.00   0.168   0.209   0.230   0.150   0.152   0.091   0.087   0.088   0.088
 1982 054   141   215   143     11     59    235     0     0   179    0.03   0.0   0.0   0.00   0.163   0.209   0.230   0.150   0.152   0.091   0.087   0.088   0.088
 1982 055   142   214   143     11     59    235     0     0   179    0.03   0.0   0.0   0.00   0.150   0.208   0.230   0.150   0.152   0.091   0.087   0.088   0.088
 1982 056   143   213   142     11     59    235     0     0   179    0.03   0.0   0.0   0.00   0.139   0.207   0.229   0.150   0.152   0.091   0.087   0.088   0.088
 1982 057   144   213   141     11     59    235     0     0   179    0.03   0.0   0.0   0.00   0.128   0.206   0.229   0.150   0.152   0.091   0.087   0.088   0.088
 1982 058   145   212   140     11     59    235     0     0   179    0.02   0.0   0.0   0.00   0.119   0.205   0.229   0.150   0.152   0.091   0.087   0.088   0.088
 1982 059   146   212   140     11     59    235     0     0   179    0.02   0.0   0.0   0.00   0.110   0.204   0.229   0.150   0.152   0.091   0.087   0.088   0.088
 1982 060   147   211   139     11     59    235     0     0   179    0.02   0.0   0.0   0.00   0.102   0.202   0.228   0.150   0.152   0.091   0.087   0.088   0.088
 1982 061   148   210   139     11     59    235     0     0   179    0.02   0.0   0.0   0.00   0.095   0.201   0.228   0.150   0.152   0.091   0.087   0.088   0.088
 1982 062   149   210   139     11     59    235     0     0   179    0.02   0.0   0.0   0.00   0.094   0.201   0.228   0.150   0.152   0.091   0.087   0.088   0.088
 1982 063   150   210   139     11     59    236     0     0   179    0.02   0.0   0.0   0.00   0.092   0.201   0.228   0.150   0.152   0.091   0.087   0.088   0.088
 1982 064   151   210   138     11     59    236     0     0   179    0.02   0.0   0.0   0.00   0.089   0.200   0.228   0.150   0.152   0.091   0.087   0.088   0.088
 1982 065   152   210   138     11     59    236     0     0   179    0.03   0.0   0.0   0.00   0.092   0.199   0.228   0.150   0.152   0.091   0.087   0.088   0.088
 1982 066   153   210   138     11     59    236     0     0   179    0.03   0.0   0.0   0.00   0.086   0.198   0.227   0.150   0.152   0.091   0.087   0.088   0.088
 1982 067   154   209   137     11     59    236     0     0   179    0.03   0.0   0.0   0.00   0.080   0.197   0.227   0.149   0.152   0.091   0.087   0.088   0.088
 1982 068   155   209   137     11     59    236     0     0   179    0.03   0.0   0.0   0.00   0.075   0.196   0.227   0.149   0.152   0.091   0.087   0.088   0.088
 1982 069   156   208   137     11     59    236     0     0   179    0.03   0.0   0.0   0.00   0.070   0.195   0.227   0.149   0.152   0.091   0.087   0.088   0.088
 1982 070   157   208   136     11     59    236     0     0   179    0.03   0.0   0.0   0.00   0.066   0.194   0.226   0.149   0.152   0.091   0.087   0.088   0.088
 1982 071   158   208   136     11     59    236     0     0   179    0.03   0.0   0.0   0.00   0.062   0.193   0.226   0.149   0.152   0.091   0.087   0.088   0.088
 1982 072   159   207   135     11     59    236     0     0   179    0.03   0.0   0.0   0.00   0.058   0.192   0.226   0.149   0.152   0.091   0.087   0.088   0.088
 1982 073   160   207   136     11     59    236     0     0   180    0.03   0.0   0.0   0.00   0.066   0.191   0.225   0.149   0.152   0.091   0.087   0.088   0.088
 1982 074   161   228   156     11     59    258     0     0   180    0.03   0.0   0.0   0.00   0.244   0.243   0.252   0.160   0.156   0.093   0.087   0.088   0.088
 1982 075   162   235   164     11     60    271     0     0   179    0.03   0.0   0.0   0.06   0.225   0.236   0.255   0.168   0.168   0.100   0.093   0.090   0.089
 1982 076   163   224   152     11     68    271     0     0   179    0.03   0.0   0.0   0.00   0.205   0.221   0.241   0.157   0.158   0.094   0.089   0.088   0.089
 1982 077   164   223   151     11     68    271     0     0   179    0.03   0.0   0.0   0.00   0.203   0.221   0.240   0.155   0.155   0.094   0.089   0.088   0.089
 1982 078   165   233   162     11     69    286     0     0   179    0.03   0.0   0.0   0.00   0.229   0.237   0.255   0.168   0.168   0.096   0.091   0.089   0.089
 1982 079   166   223   151     11     76    286     0     0   179    0.03   0.0   0.0   0.00   0.206   0.221   0.241   0.157   0.158   0.092   0.088   0.089   0.089
 1982 080   167   219   148     11     76    286     0     0   179    0.03   0.0   0.0   0.00   0.190   0.214   0.236   0.153   0.154   0.092   0.087   0.089   0.088
 1982 081   168   216   144     11     76    286     0     0   179    0.03   0.0   0.0   0.00   0.173   0.207   0.231   0.151   0.152   0.091   0.087   0.088   0.088
 1982 082   169   215   143     11     76    286     0     0   179    0.03   0.0   0.0   0.00   0.159   0.205   0.231   0.151   0.152   0.091   0.087   0.088   0.088
 1982 083   170   214   142     11     76    286     0     0   179    0.03   0.0   0.0   0.00   0.146   0.203   0.230   0.151   0.152   0.091   0.087   0.088   0.088
 1982 084   171   217   145     11     76    291     0     0   179    0.03   0.0   0.0   0.00   0.213   0.203   0.229   0.151   0.152   0.091   0.087   0.088   0.088
 1982 085   172   216   144     11     76    291     0     0   179    0.03   0.0   0.0   0.00   0.195   0.201   0.228   0.151   0.152   0.091   0.087   0.088   0.088
 1982 086   173   214   143     11     76    291     0     0   179    0.03   0.0   0.0   0.00   0.178   0.199   0.227   0.150   0.152   0.091   0.087   0.088   0.088
 1982 087   174   213   142     11     76    291     0     0   179    0.03   0.0   0.0   0.00   0.164   0.197   0.226   0.150   0.152   0.091   0.087   0.088   0.088
 1982 088   175   212   141     11     76    291     0     0   179    0.03   0.0   0.0   0.00   0.151   0.196   0.226   0.150   0.152   0.091   0.087   0.088   0.088
 1982 089   176   212   141     11     76    292     0     0   179    0.03   0.0   0.0   0.00   0.166   0.193   0.224   0.150   0.151   0.091   0.087   0.088   0.088
 1982 090   177   211   139     11     76    292     0     0   179    0.03   0.0   0.0   0.00   0.151   0.190   0.222   0.149   0.151   0.091   0.087   0.088   0.088
 1982 091   178   209   138     11     76    292     0     0   179    0.03   0.0   0.0   0.00   0.137   0.186   0.220   0.149   0.150   0.091   0.087   0.088   0.088
 1982 092   179   208   136     11     76    292     0     0   179    0.03   0.0   0.0   0.00   0.124   0.183   0.218   0.148   0.150   0.091   0.087   0.088   0.088
 1982 093   180   206   135     11     76    292     0     0   179    0.03   0.0   0.0   0.00   0.112   0.179   0.216   0.148   0.150   0.091   0.087   0.088   0.088
 1982 094   181   205   134     11     76    292     0     0   179    0.03   0.0   0.0   0.00   0.103   0.175   0.214   0.147   0.149   0.091   0.087   0.088   0.088
 1982 095   182   211   139     11     76    299     0     0   179    0.03   0.0   0.0   0.00   0.216   0.176   0.213   0.147   0.149   0.091   0.087   0.088   0.088
 1982 096   183   209   137     11     76    299     0     0   179    0.03   0.0   0.0   0.00   0.197   0.173   0.211   0.147   0.148   0.090   0.087   0.088   0.088
 1982 097   184   208   137     11     76    299     0     0   179    0.03   0.0   0.0   0.00   0.187   0.172   0.211   0.147   0.148   0.090   0.087   0.088   0.088
 1982 098   185   208   136     11     76    299     0     0   179    0.03   0.0   0.0   0.00   0.186   0.170   0.210   0.146   0.148   0.090   0.087   0.088   0.088
 1982 099   186   206   134     11     76    299     0     0   179    0.03   0.0   0.0   0.00   0.168   0.166   0.207   0.146   0.147   0.090   0.087   0.088   0.088
 1982 100   187   204   132     11     76    299     0     0   179    0.03   0.0   0.0   0.00   0.151   0.162   0.205   0.145   0.147   0.090   0.087   0.088   0.088
 1982 101   188   202   130     11     76    299     0     0   179    0.03   0.0   0.0   0.00   0.135   0.157   0.202   0.144   0.146   0.090   0.087   0.088   0.088
 1982 102   189   200   128     11     76    299     0     0   179    0.03   0.0   0.0   0.00   0.118   0.151   0.198   0.144   0.145   0.090   0.087   0.088   0.088
 1982 103   190   198   126     11     76    299     0     0   179    0.03   0.0   0.0   0.00   0.105   0.145   0.195   0.143   0.144   0.090   0.087   0.088   0.088
 1982 104   191   195   123     11     76    299     0     0   179    0.03   0.0   0.0   0.00   0.096   0.136   0.190   0.141   0.142   0.090   0.087   0.088   0.088
 1982 105   192   193   121     11     76    299     0     0   179    0.03   0.0   0.0   0.00   0.089   0.130   0.185   0.140   0.141   0.089   0.087   0.088   0.088
 1982 106   193   192   120     11     76    299     0     0   179    0.03   0.0   0.0   0.00   0.083   0.126   0.183   0.139   0.140   0.089   0.087   0.088   0.088
 1982 107   194   189   118     11     76    299     0     0   179    0.02   0.0   0.0   0.00   0.077   0.118   0.178   0.138   0.139   0.089   0.087   0.088   0.088
 1982 108   195   187   115     11     76    299     0     0   179    0.02   0.0   0.0   0.00   0.072   0.111   0.172   0.136   0.137   0.088   0.087   0.088   0.088
 1982 109   196   187   115     11     76    302     0     0   179    0.03   0.0   0.0   0.00   0.121   0.107   0.165   0.134   0.134   0.088   0.087   0.088   0.088
 1982 110   197   184   113     11     76    302     0     0   179    0.03   0.0   0.0   0.00   0.102   0.105   0.160   0.133   0.132   0.088   0.087   0.088   0.088
 1982 111   198   182   110     11     76    302     0     0   179    0.03   0.0   0.0   0.00   0.093   0.103   0.154   0.131   0.130   0.087   0.087   0.088   0.088
 1982 112   199   179   108     11     76    302     0     0   179    0.03   0.0   0.0   0.00   0.085   0.100   0.146   0.129   0.128   0.087   0.087   0.088   0.088
 1982 113   200   177   105     11     76    302     0     0   179    0.03   0.0   0.0   0.00   0.079   0.099   0.139   0.126   0.125   0.086   0.087   0.088   0.088
 1982 114   201   174   103     11     76    302     0     0   179    0.03   0.0   0.0   0.00   0.074   0.097   0.131   0.124   0.122   0.085   0.087   0.088   0.088
 1982 115   202   173   101     11     76    303     0     0   179    0.03   0.0   0.0   0.00   0.078   0.096   0.126   0.123   0.121   0.085   0.086   0.088   0.088
 1982 116   203   170    98     11     76    303     0     0   179    0.03   0.0   0.0   0.00   0.073   0.094   0.116   0.120   0.117   0.084   0.086   0.088   0.088
 1982 117   204   169    97     11     76    303     0     0   179    0.03   0.0   0.0   0.00   0.068   0.094   0.114   0.118   0.116   0.084   0.086   0.088   0.088
 1982 118   205   172   101     11     76    307     0     0   179    0.04   0.0   0.0   0.00   0.143   0.093   0.114   0.118   0.115   0.084   0.086   0.088   0.088
 1982 119   206   187   116     11     76    323     0     0   179    0.04   0.0   0.0   0.00   0.234   0.200   0.113   0.118   0.115   0.084   0.086   0.088   0.088
 1982 120   207   186   114     11     76    323     0     0   180    0.04   0.0   0.0   0.00   0.220   0.198   0.111   0.116   0.114   0.083   0.086   0.088   0.088
 1982 121   208   183   111     11     76    323     0     0   180    0.04   0.0   0.0   0.00   0.193   0.191   0.110   0.115   0.112   0.083   0.086   0.088   0.088
 1982 122   209   180   108     11     76    323     0     0   180    0.04   0.0   0.0   0.00   0.164   0.181   0.108   0.114   0.111   0.083   0.086   0.088   0.088
 1982 123   210   176   104     11     76    323     0     0   180    0.04   0.0   0.0   0.00   0.136   0.169   0.106   0.112   0.108   0.082   0.086   0.088   0.088
 1982 124   211   172   100     11     76    323     0     0   180    0.04   0.0   0.0   0.00   0.106   0.154   0.104   0.110   0.106   0.082   0.086   0.088   0.088
 1982 125   212   170    99     11     76    323     0     0   180    0.04   0.0   0.0   0.00   0.099   0.150   0.104   0.109   0.105   0.081   0.086   0.088   0.088
 1982 126   213   200   129     11     76    355     0     0   180    0.05   0.0   0.0   0.00   0.234   0.235   0.206   0.108   0.103   0.081   0.086   0.088   0.088
 1982 127   214   198   127     11     76    359     0     0   180    0.05   0.0   0.0   0.00   0.223   0.224   0.212   0.105   0.101   0.080   0.085   0.088   0.088
 1982 128   215   193   121     11     76    359     0     0   180    0.05   0.0   0.0   0.00   0.187   0.210   0.205   0.103   0.098   0.079   0.085   0.088   0.088
 1982 129   216   188   116     11     76    359     0     0   180    0.05   0.0   0.0   0.00   0.156   0.196   0.197   0.101   0.096   0.079   0.085   0.088   0.088
 1982 130   217   184   113     11     76    359     0     0   180    0.05   0.0   0.0   0.00   0.131   0.186   0.192   0.099   0.094   0.079   0.085   0.088   0.088
 1982 131   218   181   109     11     76    360     0     0   180    0.06   0.0   0.0   0.00   0.126   0.174   0.185   0.097   0.092   0.078   0.084   0.088   0.088
 1982 132   219   206   134     11     76    387     0     0   180    0.06   0.0   0.0   0.00   0.232   0.239   0.252   0.119   0.091   0.078   0.084   0.088   0.088
 1982 133   220   204   132     11     76    387     0     0   180    0.06   0.0   0.0   0.00   0.221   0.226   0.244   0.129   0.089   0.077   0.084   0.088   0.087
 1982 134   221   202   131     11     76    388     0     0   180    0.06   0.0   0.0   0.00   0.220   0.220   0.238   0.131   0.088   0.077   0.084   0.087   0.087
 1982 135   222   209   137     11     76    400     0     0   180    0.06   0.0   0.0   0.00   0.223   0.229   0.251   0.154   0.090   0.076   0.083   0.087   0.087
 1982 136   223   208   136     11     76    402     0     0   180    0.06   0.0   0.0   0.00   0.232   0.224   0.242   0.157   0.095   0.076   0.083   0.087   0.087
 1982 137   224   209   138     11     76    407     0     0   180    0.06   0.0   0.0   0.00   0.232   0.230   0.241   0.157   0.101   0.076   0.083   0.087   0.087
 1982 138   225   206   134     11     76    408     0     0   180    0.06   0.0   0.0   0.00   0.220   0.216   0.234   0.154   0.103   0.075   0.082   0.087   0.087
 1982 139   226   200   128     11     76    408     0     0   180    0.06   0.0   0.0   0.00   0.195   0.201   0.224   0.151   0.101   0.074   0.082   0.087   0.087
 1982 140   227   197   125     11     76    408     0     0   180    0.06   0.0   0.0   0.00   0.172   0.193   0.220   0.150   0.099   0.074   0.081   0.087   0.087
 1982 141   228   217   145     11     76    432     0     0   180    0.06   0.0   0.0   0.00   0.229   0.233   0.253   0.167   0.138   0.074   0.081   0.086   0.086
 1982 142   229   214   142     11     76    433     0     0   180    0.06   0.0   0.0   0.00   0.217   0.220   0.241   0.162   0.150   0.073   0.081   0.086   0.086
 1982 143   230   209   137     11     76    433     0     0   180    0.06   0.0   0.0   0.00   0.195   0.207   0.233   0.154   0.151   0.073   0.080   0.086   0.086
 1982 144   231   207   135     11     76    433     0     0   180    0.06   0.0   0.0   0.00   0.187   0.201   0.230   0.153   0.150   0.073   0.080   0.086   0.086
 1982 145   232   221   149     11     76    450     0     0   180    0.06   0.0   0.0   0.00   0.235   0.237   0.255   0.166   0.159   0.078   0.080   0.086   0.086
 1982 146   233   240   168     11     78    476     0     0   178    0.06   0.0   0.0   0.88   0.226   0.231   0.251   0.167   0.167   0.110   0.098   0.093   0.090
 1982 147   234   237   165     11     81    483     0     0   176    0.06   0.0   0.0   0.00   0.222   0.229   0.245   0.165   0.164   0.102   0.098   0.096   0.094
 1982 148   235   224   152     11     90    483     0     0   178    0.06   0.0   0.0   0.00   0.207   0.217   0.236   0.156   0.156   0.095   0.091   0.090   0.090
 1982 149   236   243   171     12     94    511     0     0   176    0.06   0.0   0.0   0.54   0.226   0.231   0.252   0.167   0.167   0.110   0.101   0.097   0.094
 1982 150   237   236   164     12     98    512     0     0   174    0.06   0.0   0.0   0.00   0.218   0.219   0.240   0.161   0.163   0.101   0.099   0.098   0.097
 1982 151   238   240   169     12    102    524     0     0   174    0.06   0.0   0.0   0.00   0.235   0.237   0.255   0.168   0.165   0.098   0.096   0.097   0.097
 1982 152   239   224   152     12    114    524     0     0   178    0.06   0.0   0.0   0.00   0.206   0.215   0.237   0.157   0.156   0.093   0.090   0.091   0.091
 1982 153   240   221   149     12    115    525     0     0   178    0.06   0.0   0.0   0.00   0.216   0.210   0.234   0.155   0.154   0.093   0.088   0.089   0.090
 1982 154   241   221   149     12    115    526     0     0   178    0.06   0.0   0.0   0.00   0.224   0.209   0.231   0.155   0.154   0.092   0.088   0.089   0.090
 1982 155   242   220   148     12    115    528     0     0   178    0.06   0.0   0.0   0.00   0.233   0.213   0.227   0.153   0.152   0.092   0.088   0.089   0.090
 1982 156   243   216   144     12    115    528     0     0   179    0.06   0.0   0.0   0.00   0.208   0.204   0.219   0.151   0.150   0.091   0.087   0.089   0.089
 1982 157   244   211   139     12    115    528     0     0   179    0.06   0.0   0.0   0.00   0.189   0.192   0.212   0.148   0.147   0.090   0.086   0.088   0.089
 1982 158   245   219   147     12    115    540     0     0   179    0.06   0.0   0.0   0.00   0.217   0.233   0.231   0.146   0.145   0.090   0.086   0.088   0.089
 1982 159   246   213   142     12    115    540     0     0   179    0.06   0.0   0.0   0.00   0.196   0.215   0.227   0.143   0.142   0.089   0.086   0.088   0.089
 1982 160   247   226   154     12    115    559     0     0   179    0.06   0.0   0.0   0.00   0.223   0.230   0.251   0.167   0.156   0.092   0.085   0.088   0.089
 1982 161   248   218   147     12    117    559     0     0   179    0.06   0.0   0.0   0.00   0.197   0.211   0.235   0.156   0.153   0.091   0.086   0.087   0.088
 1982 162   249   216   144     12    117    559     0     0   179    0.06   0.0   0.0   0.00   0.186   0.205   0.231   0.154   0.152   0.090   0.086   0.087   0.088
 1982 163   250   211   139     12    117    559     0     0   179    0.06   0.0   0.0   0.00   0.164   0.192   0.223   0.151   0.149   0.089   0.085   0.087   0.088
 1982 164   251   209   137     12    117    559     0     0   179    0.05   0.0   0.0   0.00   0.148   0.188   0.221   0.151   0.149   0.089   0.085   0.087   0.088
 1982 165   252   209   137     12    117    559     0     0   179    0.06   0.0   0.0   0.00   0.146   0.188   0.221   0.151   0.149   0.089   0.085   0.087   0.088
 1982 166   253   226   155     12    117    582     0     0   180    0.06   0.0   0.0   0.00   0.224   0.235   0.254   0.165   0.158   0.093   0.085   0.086   0.087
 1982 167   254   222   150     12    117    582     0     0   180    0.06   0.0   0.0   0.00   0.201   0.219   0.241   0.160   0.159   0.093   0.088   0.085   0.087
 1982 168   255   216   145     12    117    582     0     0   180    0.06   0.0   0.0   0.00   0.176   0.209   0.234   0.153   0.153   0.092   0.087   0.086   0.086
 1982 169   256   213   141     12    117    583     0     0   180    0.06   0.0   0.0   0.00   0.173   0.200   0.229   0.151   0.151   0.091   0.087   0.086   0.086
 1982 170   257   212   141     12    117    583     0     0   180    0.06   0.0   0.0   0.00   0.159   0.199   0.228   0.151   0.151   0.091   0.087   0.086   0.086
 1982 171   258   211   140     12    117    583     0     0   180    0.06   0.0   0.0   0.00   0.147   0.198   0.228   0.151   0.151   0.091   0.087   0.086   0.086
 1982 172   259   211   139     12    117    583     0     0   180    0.06   0.0   0.0   0.00   0.136   0.197   0.228   0.151   0.151   0.091   0.087   0.086   0.086
 1982 173   260   222   150     12    117    599     0     0   180    0.06   0.0   0.0   0.00   0.225   0.235   0.244   0.156   0.154   0.091   0.086   0.085   0.085
 1982 174   261   219   147     12    117    600     0     0   180    0.06   0.0   0.0   0.00   0.212   0.223   0.239   0.155   0.154   0.092   0.085   0.085   0.085

*DSSAT Cropping System Model Ver. 4.5.1.023 -Stub         DEC 04, 2014; 01:36:04
                                                                                
*RUN   2        : DRYLAND  - 60 KG N/HA     CSCER045 KSAS8101    2              
 MODEL          : CSCER045 - Wheat                                              
 EXPERIMENT     : KSAS8101 WH N RESPONSE,KANSAS STATE  3FE(N)*2IR  (DSSAT3)     
 DATA PATH      :                                                               
 TREATMENT  2   : DRYLAND  - 60 KG N/HA     CSCER045                            
  
!                                                                                                 Soil water content (mm3/mm3) by soil depth (cm):
!                                                                                                 0-5    5-15   15-30   30-45   45-60   60-90  90-120 120-150 150-180
@YEAR DOY   DAS  SWTD  SWXD   ROFC   DRNC   PREC  IR#C  IRRC  DTWT    MWTD  TDFD  TDFC   ROFD    SW1D    SW2D    SW3D    SW4D    SW5D    SW6D    SW7D    SW8D    SW9D
 1981 278     0   163    91      0      0      0     0     0     0    0.00   0.0   0.0   0.00   0.205   0.205   0.170   0.092   0.092   0.065   0.066   0.066   0.066
 1981 279     1   162    90      0      0      0     0     0    90    0.00   0.0   0.0   0.00   0.189   0.204   0.170   0.092   0.092   0.065   0.066   0.066   0.066
 1981 280     2   161    89      0      0      0     0     0   180    0.00   0.0   0.0   0.00   0.174   0.203   0.170   0.092   0.092   0.065   0.066   0.066   0.066
 1981 281     3   160    88      0      0      0     0     0   180    0.00   0.0   0.0   0.00   0.160   0.202   0.169   0.092   0.092   0.065   0.066   0.066   0.066
 1981 282     4   159    88      0      0      0     0     0   180    0.00   0.0   0.0   0.00   0.149   0.201   0.169   0.092   0.092   0.065   0.066   0.066   0.066
 1981 283     5   159    87      0      0      0     0     0   180    0.00   0.0   0.0   0.00   0.138   0.200   0.169   0.092   0.092   0.065   0.066   0.066   0.066
 1981 284     6   158    86      0      0      0     0     0   180    0.00   0.0   0.0   0.00   0.127   0.199   0.169   0.092   0.092   0.065   0.066   0.066   0.066
 1981 285     7   164    92      0      0      6     0     0   180    0.00   0.0   0.0   0.00   0.232   0.206   0.169   0.092   0.092   0.065   0.066   0.066   0.066
 1981 286     8   164    92      0      0      6     0     0   180    0.00   0.0   0.0   0.00   0.225   0.207   0.168   0.092   0.092   0.065   0.066   0.066   0.066
 1981 287     9   164    92      0      0      8     0     0   180    0.00   0.0   0.0   0.00   0.230   0.213   0.167   0.091   0.091   0.065   0.066   0.066   0.066
 1981 288    10   162    91      0      0      8     0     0   180    0.00   0.0   0.0   0.00   0.218   0.211   0.165   0.090   0.091   0.064   0.066   0.066   0.066
 1981 289    11   162    90      0      0      8     0     0   180    0.00   0.0   0.0   0.00   0.205   0.211   0.165   0.090   0.091   0.064   0.066   0.066   0.066
 1981 290    12   171   100      0      0     21     0     0   180    0.00   0.0   0.0   0.00   0.229   0.238   0.208   0.089   0.090   0.064   0.065   0.065   0.065
 1981 291    13   169    97      0      0     21     0     0   180    0.00   0.0   0.0   0.00   0.211   0.224   0.211   0.089   0.089   0.064   0.065   0.065   0.065
 1981 292    14   168    96      0      0     21     0     0   180    0.00   0.0   0.0   0.00   0.195   0.223   0.210   0.088   0.089   0.064   0.065   0.065   0.065
 1981 293    15   167    95      0      0     21     0     0   180    0.00   0.0   0.0   0.00   0.179   0.222   0.210   0.088   0.089   0.064   0.065   0.065   0.065
 1981 294    16   166    94      0      0     21     0     0   180    0.00   0.0   0.0   0.00   0.165   0.221   0.210   0.088   0.089   0.064   0.065   0.065   0.065
 1981 295    17   165    94      0      0     21     0     0   180    0.00   0.0   0.0   0.00   0.152   0.220   0.210   0.088   0.089   0.064   0.065   0.065   0.065
 1981 296    18   165    93      0      0     21     0     0   180    0.00   0.0   0.0   0.00   0.141   0.219   0.209   0.088   0.089   0.064   0.065   0.065   0.065
 1981 297    19   164    92      0      0     21     0     0   180    0.00   0.0   0.0   0.00   0.130   0.218   0.209   0.088   0.089   0.064   0.065   0.065   0.065
 1981 298    20   166    94      0      0     24     0     0   180    0.00   0.0   0.0   0.00   0.178   0.216   0.209   0.088   0.089   0.064   0.065   0.065   0.065
 1981 299    21   166    94      0      0     24     0     0   180    0.00   0.0   0.0   0.00   0.179   0.215   0.209   0.088   0.089   0.064   0.065   0.065   0.065
 1981 300    22   165    93      0      0     24     0     0   180    0.00   0.0   0.0   0.00   0.165   0.214   0.209   0.088   0.089   0.064   0.065   0.065   0.065
 1981 301    23   164    93      0      0     24     0     0   180    0.00   0.0   0.0   0.00   0.152   0.213   0.208   0.088   0.089   0.064   0.065   0.065   0.065
 1981 302    24   164    92      0      0     24     0     0   180    0.00   0.0   0.0   0.00   0.140   0.212   0.208   0.088   0.089   0.064   0.065   0.065   0.065
 1981 303    25   163    91      0      0     24     0     0   180    0.00   0.0   0.0   0.00   0.130   0.211   0.208   0.088   0.089   0.063   0.065   0.065   0.065
 1981 304    26   163    91      0      0     25     0     0   180    0.00   0.0   0.0   0.00   0.134   0.210   0.208   0.088   0.089   0.063   0.065   0.065   0.065
 1981 305    27   221   149     10      0     93     0     0   180    0.00   0.0   0.0   9.98   0.245   0.244   0.259   0.170   0.170   0.102   0.082   0.065   0.065
 1981 306    28   223   151     10      0     96     0     0   180    0.00   0.0   0.0   0.00   0.245   0.243   0.255   0.169   0.169   0.100   0.090   0.070   0.065
 1981 307    29   222   151     10      0     96     0     0   180    0.00   0.0   0.0   0.00   0.230   0.232   0.248   0.165   0.167   0.098   0.093   0.079   0.065
 1981 308    30   235   163     10      0    110     0     0   180    0.00   0.0   0.0   0.10   0.244   0.243   0.259   0.170   0.170   0.105   0.098   0.090   0.070
 1981 309    31   235   164     10      0    113     0     0   180    0.00   0.0   0.0   0.00   0.234   0.237   0.252   0.168   0.168   0.101   0.097   0.094   0.081
 1981 310    32   225   154     10      7    113     0     0   180    0.00   0.0   0.0   0.00   0.216   0.225   0.242   0.158   0.159   0.094   0.091   0.090   0.087
 1981 311    33   222   150     10      9    113     0     0   180    0.00   0.0   0.0   0.00   0.206   0.221   0.239   0.155   0.155   0.092   0.088   0.089   0.087
 1981 312    34   239   167     10     11    131     0     0   179    0.00   0.0   0.0   0.16   0.247   0.245   0.260   0.170   0.170   0.100   0.093   0.091   0.089
 1981 313    35   242   170     10     13    139     0     0   177    0.00   0.0   0.0   0.02   0.237   0.240   0.257   0.169   0.169   0.104   0.097   0.095   0.093
 1981 314    36   227   156     10     25    139     0     0   179    0.00   0.0   0.0   0.00   0.218   0.226   0.244   0.159   0.159   0.096   0.091   0.090   0.089
 1981 315    37   223   151     10     28    139     0     0   179    0.00   0.0   0.0   0.00   0.207   0.222   0.239   0.155   0.155   0.093   0.088   0.090   0.089
 1981 316    38   220   149     10     28    139     0     0   179    0.00   0.0   0.0   0.00   0.195   0.217   0.236   0.153   0.154   0.092   0.088   0.089   0.089
 1981 317    39   218   146     10     28    139     0     0   179    0.00   0.0   0.0   0.00   0.184   0.212   0.233   0.152   0.153   0.092   0.088   0.089   0.088
 1981 318    40   216   145     10     28    139     0     0   179    0.00   0.0   0.0   0.00   0.176   0.208   0.231   0.151   0.152   0.091   0.087   0.089   0.088
 1981 319    41   215   143     10     28    139     0     0   179    0.00   0.0   0.0   0.00   0.168   0.204   0.228   0.150   0.152   0.091   0.087   0.089   0.088
 1981 320    42   214   142     10     28    139     0     0   179    0.00   0.0   0.0   0.00   0.154   0.202   0.228   0.150   0.151   0.091   0.087   0.089   0.088
 1981 321    43   213   141     10     28    139     0     0   179    0.00   0.0   0.0   0.00   0.142   0.200   0.227   0.150   0.151   0.091   0.087   0.089   0.088
 1981 322    44   212   140     10     28    139     0     0   179    0.00   0.0   0.0   0.00   0.130   0.199   0.227   0.150   0.151   0.091   0.087   0.089   0.088
 1981 323    45   211   140     10     28    139     0     0   179    0.00   0.0   0.0   0.00   0.125   0.198   0.226   0.150   0.151   0.091   0.087   0.089   0.088
 1981 324    46   211   139     10     28    139     0     0   179    0.00   0.0   0.0   0.00   0.115   0.197   0.226   0.150   0.151   0.091   0.087   0.089   0.088
 1981 325    47   210   138     10     28    139     0     0   179    0.00   0.0   0.0   0.00   0.107   0.195   0.225   0.150   0.151   0.091   0.087   0.089   0.088
 1981 326    48   209   138     10     28    139     0     0   179    0.00   0.0   0.0   0.00   0.099   0.193   0.225   0.150   0.151   0.091   0.087   0.089   0.088
 1981 327    49   209   137     10     28    139     0     0   179    0.00   0.0   0.0   0.00   0.092   0.192   0.224   0.150   0.151   0.091   0.087   0.088   0.088
 1981 328    50   208   136     10     28    139     0     0   179    0.00   0.0   0.0   0.00   0.086   0.190   0.224   0.149   0.151   0.091   0.087   0.088   0.088
 1981 329    51   208   136     10     28    139     0     0   179    0.00   0.0   0.0   0.00   0.080   0.188   0.223   0.149   0.151   0.091   0.087   0.088   0.088
 1981 330    52   207   135     10     28    139     0     0   179    0.00   0.0   0.0   0.00   0.075   0.187   0.222   0.149   0.151   0.091   0.087   0.088   0.088
 1981 331    53   207   135     10     28    139     0     0   179    0.00   0.0   0.0   0.00   0.070   0.185   0.222   0.149   0.151   0.091   0.087   0.088   0.088
 1981 332    54   206   134     10     28    139     0     0   179    0.00   0.0   0.0   0.00   0.066   0.184   0.222   0.149   0.151   0.091   0.087   0.088   0.088
 1981 333    55   206   134     10     28    139     0     0   179    0.00   0.0   0.0   0.00   0.062   0.183   0.221   0.149   0.151   0.091   0.087   0.088   0.088
 1981 334    56   225   153     10     28    158     0     0   179    0.00   0.0   0.0   0.00   0.246   0.245   0.242   0.153   0.151   0.091   0.087   0.088   0.088
 1981 335    57   236   165     10     29    171     0     0   179    0.00   0.0   0.0   0.24   0.246   0.244   0.260   0.170   0.170   0.097   0.090   0.090   0.089
 1981 336    58   227   155     10     37    171     0     0   179    0.00   0.0   0.0   0.00   0.226   0.230   0.246   0.160   0.160   0.093   0.088   0.089   0.089
 1981 337    59   223   152     10     39    171     0     0   179    0.00   0.0   0.0   0.00   0.217   0.223   0.240   0.155   0.156   0.093   0.088   0.089   0.089
 1981 338    60   222   150     10     39    171     0     0   179    0.00   0.0   0.0   0.00   0.209   0.219   0.238   0.154   0.155   0.092   0.088   0.089   0.088
 1981 339    61   221   149     10     39    171     0     0   179    0.00   0.0   0.0   0.00   0.206   0.218   0.237   0.154   0.155   0.092   0.088   0.089   0.088
 1981 340    62   220   148     10     39    171     0     0   179    0.00   0.0   0.0   0.00   0.199   0.215   0.235   0.153   0.154   0.092   0.087   0.089   0.088
 1981 341    63   218   146     10     39    171     0     0   179    0.00   0.0   0.0   0.00   0.190   0.211   0.233   0.152   0.153   0.092   0.087   0.089   0.088
 1981 342    64   217   145     10     39    171     0     0   179    0.00   0.0   0.0   0.00   0.184   0.208   0.231   0.152   0.153   0.091   0.087   0.088   0.088
 1981 343    65   215   144     10     39    171     0     0   180    0.00   0.0   0.0   0.00   0.178   0.205   0.229   0.151   0.152   0.091   0.087   0.088   0.088
 1981 344    66   215   143     10     39    171     0     0   180    0.00   0.0   0.0   0.00   0.177   0.205   0.229   0.151   0.152   0.091   0.087   0.088   0.088
 1981 345    67   215   143     10     39    171     0     0   180    0.00   0.0   0.0   0.00   0.176   0.204   0.228   0.151   0.152   0.091   0.087   0.088   0.088
 1981 346    68   215   143     10     39    171     0     0   180    0.00   0.0   0.0   0.00   0.176   0.204   0.228   0.150   0.152   0.091   0.087   0.088   0.088
 1981 347    69   215   143     10     39    171     0     0   180    0.00   0.0   0.0   0.00   0.175   0.204   0.228   0.150   0.152   0.091   0.087   0.088   0.088
 1981 348    70   214   143     10     39    172     0     0   180    0.00   0.0   0.0   0.00   0.182   0.202   0.227   0.150   0.152   0.091   0.087   0.088   0.088
 1981 349    71   214   142     10     39    172     0     0   180    0.00   0.0   0.0   0.00   0.177   0.202   0.227   0.150   0.152   0.091   0.087   0.088   0.088
 1981 350    72   214   142     10     39    172     0     0   180    0.00   0.0   0.0   0.00   0.177   0.202   0.227   0.150   0.152   0.091   0.087   0.088   0.088
 1981 351    73   214   142     10     39    176     0     0   180    0.00   0.0   0.0   0.00   0.176   0.202   0.227   0.150   0.152   0.091   0.087   0.088   0.088
 1981 352    74   214   142     10     39    176     0     0   180    0.00   0.0   0.0   0.00   0.176   0.201   0.227   0.150   0.152   0.091   0.087   0.088   0.088
 1981 353    75   214   142     10     39    176     0     0   180    0.01   0.0   0.0   0.00   0.174   0.201   0.227   0.150   0.152   0.091   0.087   0.088   0.088
 1981 354    76   217   145     10     39    176     0     0   180    0.02   0.0   0.0   0.00   0.224   0.202   0.227   0.150   0.152   0.091   0.087   0.088   0.088
 1981 355    77   219   147     10     39    177     0     0   180    0.03   0.0   0.0   0.00   0.243   0.213   0.227   0.150   0.151   0.091   0.087   0.088   0.088
 1981 356    78   218   147     10     39    177     0     0   180    0.03   0.0   0.0   0.00   0.231   0.218   0.226   0.150   0.151   0.091   0.087   0.088   0.088
 1981 357    79   217   145     10     39    177     0     0   180    0.02   0.0   0.0   0.00   0.220   0.217   0.225   0.149   0.151   0.091   0.086   0.088   0.087
 1981 358    80   216   144     10     39    177     0     0   180    0.02   0.0   0.0   0.00   0.202   0.216   0.224   0.149   0.151   0.091   0.086   0.088   0.087
 1981 359    81   215   143     10     39    177     0     0   180    0.02   0.0   0.0   0.00   0.186   0.215   0.224   0.149   0.151   0.091   0.086   0.088   0.087
 1981 360    82   214   143     10     39    177     0     0   180    0.02   0.0   0.0   0.00   0.177   0.214   0.224   0.149   0.151   0.091   0.086   0.088   0.087
 1981 361    83   214   143     10     39    177     0     0   180    0.02   0.0   0.0   0.00   0.175   0.214   0.224   0.149   0.151   0.091   0.086   0.088   0.087
 1981 362    84   214   142     10     39    177     0     0   180    0.02   0.0   0.0   0.00   0.170   0.214   0.224   0.149   0.151   0.091   0.086   0.088   0.087
 1981 363    85   213   142     10     39    177     0     0   180    0.03   0.0   0.0   0.00   0.163   0.213   0.224   0.149   0.151   0.091   0.086   0.088   0.087
 1981 364    86   213   141     10     39    177     0     0   180    0.03   0.0   0.0   0.00   0.150   0.211   0.223   0.149   0.151   0.091   0.086   0.088   0.087
 1981 365    87   212   140     10     39    177     0     0   180    0.02   0.0   0.0   0.00   0.138   0.210   0.223   0.149   0.151   0.091   0.086   0.088   0.087
 1982 001    88   212   140     10     39    177     0     0   180    0.02   0.0   0.0   0.00   0.138   0.210   0.223   0.149   0.151   0.091   0.086   0.088   0.087
 1982 002    89   214   142     10     39    179     0     0   180    0.03   0.0   0.0   0.00   0.175   0.210   0.223   0.149   0.151   0.091   0.086   0.088   0.087
 1982 003    90   214   142     10     39    180     0     0   180    0.03   0.0   0.0   0.00   0.175   0.210   0.223   0.149   0.151   0.091   0.086   0.088   0.087
 1982 004    91   219   147     10     39    184     0     0   180    0.03   0.0   0.0   0.00   0.237   0.226   0.225   0.149   0.151   0.090   0.086   0.088   0.087
 1982 005    92   217   146     10     39    184     0     0   180    0.03   0.0   0.0   0.00   0.222   0.223   0.225   0.148   0.150   0.090   0.086   0.088   0.087
 1982 006    93   217   146     10     39    184     0     0   180    0.02   0.0   0.0   0.00   0.222   0.223   0.225   0.148   0.150   0.090   0.086   0.088   0.087
 1982 007    94   217   145     10     39    184     0     0   180    0.02   0.0   0.0   0.00   0.220   0.223   0.225   0.148   0.150   0.090   0.086   0.088   0.087
 1982 008    95   216   144     10     39    184     0     0   180    0.02   0.0   0.0   0.00   0.202   0.222   0.225   0.148   0.150   0.090   0.086   0.088   0.087
 1982 009    96   216   144     10     39    184     0     0   180    0.02   0.0   0.0   0.00   0.200   0.222   0.225   0.148   0.150   0.090   0.086   0.088   0.087
 1982 010    97   216   144     10     39    184     0     0   180    0.02   0.0   0.0   0.00   0.199   0.222   0.225   0.148   0.150   0.090   0.086   0.088   0.087
 1982 011    98   216   144     10     39    184     0     0   180    0.02   0.0   0.0   0.00   0.198   0.221   0.225   0.148   0.150   0.090   0.086   0.088   0.087
 1982 012    99   216   144     10     39    184     0     0   180    0.02   0.0   0.0   0.00   0.197   0.221   0.225   0.148   0.150   0.090   0.086   0.088   0.087
 1982 013   100   216   144     10     39    187     0     0   180    0.02   0.0   0.0   0.00   0.196   0.221   0.225   0.148   0.150   0.090   0.086   0.088   0.087
 1982 014   101   217   146     10     39    187     0     0   180    0.03   0.0   0.0   0.00   0.220   0.225   0.226   0.148   0.150   0.090   0.086   0.088   0.087
 1982 015   102   217   145     10     39    187     0     0   180    0.03   0.0   0.0   0.00   0.215   0.224   0.225   0.147   0.150   0.090   0.086   0.088   0.087
 1982 016   103   217   145     10     39    187     0     0   180    0.03   0.0   0.0   0.00   0.214   0.223   0.225   0.147   0.150   0.090   0.086   0.088   0.087
 1982 017   104   216   145     10     39    187     0     0   180    0.03   0.0   0.0   0.00   0.210   0.223   0.225   0.147   0.150   0.090   0.086   0.088   0.087
 1982 018   105   215   144     10     39    187     0     0   180    0.03   0.0   0.0   0.00   0.193   0.222   0.225   0.147   0.150   0.090   0.086   0.088   0.087
 1982 019   106   214   143     10     39    187     0     0   180    0.03   0.0   0.0   0.00   0.178   0.221   0.225   0.147   0.150   0.090   0.086   0.088   0.087
 1982 020   107   214   143     10     39    187     0     0   180    0.03   0.0   0.0   0.00   0.177   0.221   0.225   0.147   0.150   0.090   0.086   0.088   0.087
 1982 021   108   214   143     10     39    187     0     0   180    0.03   0.0   0.0   0.00   0.176   0.221   0.225   0.147   0.150   0.090   0.086   0.088   0.087
 1982 022   109   216   144     10     39    189     0     0   180    0.03   0.0   0.0   0.00   0.208   0.220   0.225   0.147   0.150   0.090   0.086   0.088   0.087
 1982 023   110   216   144     10     39    200     0     0   180    0.03   0.0   0.0   0.00   0.206   0.220   0.225   0.147   0.149   0.090   0.086   0.088   0.087
 1982 024   111   215   144     10     39    200     0     0   180    0.03   0.0   0.0   0.00   0.202   0.220   0.225   0.147   0.149   0.090   0.086   0.088   0.087
 1982 025   112   219   148     10     39    200     0     0   180    0.03   0.0   0.0   0.00   0.239   0.233   0.234   0.146   0.149   0.090   0.086   0.087   0.087
 1982 026   113   224   152     10     39    200     0     0   180    0.03   0.0   0.0   0.00   0.238   0.241   0.246   0.155   0.151   0.089   0.085   0.087   0.087
 1982 027   114   221   149     10     39    200     0     0   180    0.03   0.0   0.0   0.00   0.220   0.228   0.240   0.154   0.153   0.091   0.087   0.087   0.087
 1982 028   115   220   148     10     39    200     0     0   180    0.03   0.0   0.0   0.00   0.212   0.225   0.238   0.153   0.153   0.090   0.087   0.087   0.087
 1982 029   116   220   148     10     39    200     0     0   180    0.03   0.0   0.0   0.00   0.210   0.224   0.238   0.153   0.153   0.090   0.087   0.087   0.087
 1982 030   117   224   153     10     39    206     0     0   180    0.03   0.0   0.0   0.00   0.246   0.237   0.244   0.156   0.156   0.090   0.086   0.087   0.087
 1982 031   118   223   151     10     40    206     0     0   180    0.03   0.0   0.0   0.00   0.233   0.229   0.241   0.156   0.156   0.091   0.087   0.087   0.087
 1982 032   119   222   151     10     41    206     0     0   180    0.03   0.0   0.0   0.00   0.226   0.226   0.241   0.156   0.156   0.091   0.087   0.087   0.087
 1982 033   120   222   150     10     41    206     0     0   180    0.03   0.0   0.0   0.00   0.225   0.226   0.241   0.156   0.155   0.091   0.087   0.087   0.087
 1982 034   121   222   150     10     41    207     0     0   180    0.03   0.0   0.0   0.00   0.225   0.225   0.241   0.156   0.155   0.091   0.087   0.087   0.087
 1982 035   122   222   150     10     41    207     0     0   180    0.03   0.0   0.0   0.00   0.225   0.225   0.241   0.156   0.155   0.091   0.087   0.087   0.087
 1982 036   123   222   150     10     41    213     0     0   180    0.03   0.0   0.0   0.00   0.224   0.225   0.241   0.156   0.155   0.091   0.087   0.087   0.087
 1982 037   124   222   150     10     41    213     0     0   180    0.03   0.0   0.0   0.00   0.223   0.225   0.240   0.155   0.155   0.091   0.087   0.087   0.087
 1982 038   125   223   151     10     41    213     0     0   180    0.03   0.0   0.0   0.00   0.240   0.228   0.241   0.155   0.155   0.092   0.087   0.087   0.087
 1982 039   126   223   151     10     41    213     0     0   180    0.03   0.0   0.0   0.00   0.231   0.228   0.241   0.155   0.155   0.092   0.087   0.087   0.087
 1982 040   127   223   151     10     41    222     0     0   180    0.03   0.0   0.0   0.00   0.227   0.228   0.241   0.155   0.155   0.092   0.087   0.087   0.087
 1982 041   128   222   151     10     41    222     0     0   180    0.03   0.0   0.0   0.00   0.226   0.227   0.241   0.155   0.155   0.092   0.087   0.087   0.087
 1982 042   129   222   150     10     41    222     0     0   180    0.03   0.0   0.0   0.00   0.224   0.227   0.240   0.155   0.155   0.092   0.087   0.087   0.087
 1982 043   130   236   164     11     41    230     0     0   178    0.03   0.0   0.0   0.01   0.245   0.244   0.259   0.170   0.170   0.096   0.090   0.089   0.090
 1982 044   131   237   165     11     43    230     0     0   178    0.03   0.0   0.0   0.00   0.240   0.242   0.256   0.169   0.169   0.098   0.092   0.091   0.090
 1982 045   132   237   166     11     45    230     0     0   177    0.03   0.0   0.0   0.00   0.237   0.241   0.255   0.169   0.169   0.098   0.093   0.092   0.091
 1982 046   133   227   155     11     54    230     0     0   179    0.03   0.0   0.0   0.00   0.226   0.230   0.245   0.160   0.160   0.094   0.089   0.089   0.089
 1982 047   134   226   154     11     55    231     0     0   179    0.03   0.0   0.0   0.00   0.226   0.227   0.243   0.158   0.159   0.093   0.089   0.089   0.089
 1982 048   135   225   154     11     56    231     0     0   179    0.03   0.0   0.0   0.00   0.225   0.227   0.242   0.155   0.156   0.093   0.089   0.089   0.089
 1982 049   136   227   155     11     57    235     0     0   179    0.03   0.0   0.0   0.00   0.237   0.236   0.244   0.158   0.157   0.093   0.089   0.089   0.089
 1982 050   137   222   151     11     59    235     0     0   179    0.03   0.0   0.0   0.00   0.214   0.223   0.238   0.154   0.155   0.092   0.088   0.089   0.089
 1982 051   138   219   148     11     59    235     0     0   179    0.03   0.0   0.0   0.00   0.198   0.217   0.234   0.152   0.154   0.091   0.088   0.088   0.088
 1982 052   139   216   145     11     59    235     0     0   179    0.03   0.0   0.0   0.00   0.183   0.210   0.230   0.150   0.152   0.091   0.087   0.088   0.088
 1982 053   140   215   144     11     59    235     0     0   179    0.03   0.0   0.0   0.00   0.168   0.209   0.230   0.150   0.152   0.091   0.087   0.088   0.088
 1982 054   141   215   143     11     59    235     0     0   179    0.03   0.0   0.0   0.00   0.163   0.209   0.230   0.150   0.152   0.091   0.087   0.088   0.088
 1982 055   142   214   143     11     59    235     0     0   179    0.03   0.0   0.0   0.00   0.150   0.208   0.230   0.150   0.152   0.091   0.087   0.088   0.088
 1982 056   143   213   142     11     59    235     0     0   179    0.03   0.0   0.0   0.00   0.139   0.207   0.229   0.150   0.152   0.091   0.087   0.088   0.088
 1982 057   144   213   141     11     59    235     0     0   179    0.03   0.0   0.0   0.00   0.128   0.206   0.229   0.150   0.152   0.091   0.087   0.088   0.088
 1982 058   145   212   140     11     59    235     0     0   179    0.02   0.0   0.0   0.00   0.119   0.205   0.229   0.150   0.152   0.091   0.087   0.088   0.088
 1982 059   146   212   140     11     59    235     0     0   179    0.02   0.0   0.0   0.00   0.110   0.204   0.229   0.150   0.152   0.091   0.087   0.088   0.088
 1982 060   147   211   139     11     59    235     0     0   179    0.02   0.0   0.0   0.00   0.102   0.202   0.228   0.150   0.152   0.091   0.087   0.088   0.088
 1982 061   148   211   139     11     59    235     0     0   179    0.02   0.0   0.0   0.00   0.095   0.201   0.228   0.150   0.152   0.091   0.087   0.088   0.088
 1982 062   149   210   139     11     59    235     0     0   179    0.02   0.0   0.0   0.00   0.094   0.201   0.228   0.150   0.152   0.091   0.087   0.088   0.088
 1982 063   150   210   139     11     59    236     0     0   179    0.02   0.0   0.0   0.00   0.092   0.201   0.228   0.150   0.152   0.091   0.087   0.088   0.088
 1982 064   151   210   138     11     59    236     0     0   179    0.02   0.0   0.0   0.00   0.089   0.200   0.228   0.150   0.152   0.091   0.087   0.088   0.088
 1982 065   152   210   138     11     59    236     0     0   179    0.03   0.0   0.0   0.00   0.092   0.199   0.228   0.150   0.152   0.091   0.087   0.088   0.088
 1982 066   153   210   138     11     59    236     0     0   179    0.03   0.0   0.0   0.00   0.086   0.198   0.227   0.150   0.152   0.091   0.087   0.088   0.088
 1982 067   154   209   137     11     59    236     0     0   179    0.03   0.0   0.0   0.00   0.080   0.197   0.227   0.149   0.152   0.091   0.087   0.088   0.088
 1982 068   155   209   137     11     59    236     0     0   179    0.03   0.0   0.0   0.00   0.075   0.196   0.227   0.149   0.152   0.091   0.087   0.088   0.088
 1982 069   156   208   137     11     59    236     0     0   179    0.03   0.0   0.0   0.00   0.070   0.195   0.227   0.149   0.152   0.091   0.087   0.088   0.088
 1982 070   157   208   136     11     59    236     0     0   179    0.03   0.0   0.0   0.00   0.066   0.194   0.226   0.149   0.152   0.091   0.087   0.088   0.088
 1982 071   158   208   136     11     59    236     0     0   179    0.03   0.0   0.0   0.00   0.062   0.193   0.226   0.149   0.152   0.091   0.087   0.088   0.088
 1982 072   159   207   135     11     59    236     0     0   179    0.03   0.0   0.0   0.00   0.058   0.192   0.226   0.149   0.152   0.091   0.087   0.088   0.088
 1982 073   160   207   136     11     59    236     0     0   179    0.03   0.0   0.0   0.00   0.066   0.191   0.225   0.149   0.152   0.091   0.087   0.088   0.088
 1982 074   161   228   157     11     59    258     0     0   180    0.03   0.0   0.0   0.00   0.244   0.243   0.252   0.160   0.156   0.093   0.087   0.088   0.088
 1982 075   162   235   164     11     60    271     0     0   179    0.03   0.0   0.0   0.06   0.225   0.236   0.255   0.168   0.168   0.100   0.093   0.090   0.089
 1982 076   163   224   152     11     68    271     0     0   179    0.03   0.0   0.0   0.00   0.205   0.221   0.241   0.157   0.158   0.094   0.089   0.088   0.089
 1982 077   164   223   151     11     68    271     0     0   179    0.03   0.0   0.0   0.00   0.203   0.221   0.240   0.155   0.155   0.094   0.089   0.088   0.089
 1982 078   165   233   162     11     69    286     0     0   179    0.03   0.0   0.0   0.00   0.229   0.237   0.255   0.168   0.168   0.096   0.091   0.089   0.089
 1982 079   166   223   151     11     76    286     0     0   179    0.03   0.0   0.0   0.00   0.206   0.221   0.241   0.157   0.158   0.092   0.088   0.089   0.089
 1982 080   167   219   148     11     76    286     0     0   179    0.03   0.0   0.0   0.00   0.190   0.214   0.236   0.153   0.154   0.092   0.087   0.089   0.088
 1982 081   168   216   144     11     76    286     0     0   179    0.03   0.0   0.0   0.00   0.173   0.207   0.231   0.151   0.152   0.091   0.087   0.088   0.088
 1982 082   169   215   143     11     76    286     0     0   179    0.03   0.0   0.0   0.00   0.159   0.205   0.231   0.151   0.152   0.091   0.087   0.088   0.088
 1982 083   170   214   142     11     76    286     0     0   179    0.03   0.0   0.0   0.00   0.146   0.203   0.230   0.151   0.152   0.091   0.087   0.088   0.088
 1982 084   171   217   145     11     76    291     0     0   179    0.03   0.0   0.0   0.00   0.213   0.203   0.229   0.151   0.152   0.091   0.087   0.088   0.088
 1982 085   172   216   144     11     76    291     0     0   179    0.03   0.0   0.0   0.00   0.195   0.201   0.228   0.151   0.152   0.091   0.087   0.088   0.088
 1982 086   173   214   143     11     76    291     0     0   179    0.03   0.0   0.0   0.00   0.178   0.199   0.227   0.150   0.152   0.091   0.087   0.088   0.088
 1982 087   174   213   142     11     76    291     0     0   179    0.03   0.0   0.0   0.00   0.164   0.197   0.226   0.150   0.152   0.091   0.087   0.088   0.088
 1982 088   175   212   141     11     76    291     0     0   179    0.03   0.0   0.0   0.00   0.151   0.196   0.225   0.150   0.152   0.091   0.087   0.088   0.088
 1982 089   176   212   141     11     76    292     0     0   179    0.03   0.0   0.0   0.00   0.166   0.193   0.224   0.150   0.151   0.091   0.087   0.088   0.088
 1982 090   177   211   139     11     76    292     0     0   179    0.03   0.0   0.0   0.00   0.151   0.190   0.222   0.149   0.151   0.091   0.087   0.088   0.088
 1982 091   178   209   138     11     76    292     0     0   179    0.03   0.0   0.0   0.00   0.137   0.187   0.220   0.149   0.151   0.091   0.087   0.088   0.088
 1982 092   179   208   136     11     76    292     0     0   179    0.03   0.0   0.0   0.00   0.125   0.183   0.217   0.148   0.150   0.091   0.087   0.088   0.088
 1982 093   180   206   135     11     76    292     0     0   179    0.03   0.0   0.0   0.00   0.112   0.179   0.215   0.148   0.150   0.091   0.087   0.088   0.088
 1982 094   181   205   133     11     76    292     0     0   179    0.03   0.0   0.0   0.00   0.103   0.176   0.212   0.147   0.149   0.091   0.087   0.088   0.088
 1982 095   182   211   139     11     76    299     0     0   179    0.03   0.0   0.0   0.00   0.217   0.177   0.211   0.147   0.149   0.091   0.087   0.088   0.088
 1982 096   183   209   137     11     76    299     0     0   179    0.03   0.0   0.0   0.00   0.197   0.174   0.210   0.147   0.148   0.091   0.087   0.088   0.088
 1982 097   184   208   137     11     76    299     0     0   179    0.03   0.0   0.0   0.00   0.188   0.173   0.209   0.147   0.148   0.091   0.087   0.088   0.088
 1982 098   185   208   136     11     76    299     0     0   179    0.03   0.0   0.0   0.00   0.187   0.171   0.208   0.146   0.148   0.090   0.087   0.088   0.088
 1982 099   186   206   134     11     76    299     0     0   179    0.03   0.0   0.0   0.00   0.168   0.167   0.205   0.146   0.147   0.090   0.087   0.088   0.088
 1982 100   187   204   132     11     76    299     0     0   179    0.03   0.0   0.0   0.00   0.151   0.163   0.202   0.145   0.147   0.090   0.087   0.088   0.088
 1982 101   188   202   130     11     76    299     0     0   179    0.03   0.0   0.0   0.00   0.135   0.158   0.199   0.144   0.146   0.090   0.087   0.088   0.088
 1982 102   189   199   128     11     76    299     0     0   179    0.03   0.0   0.0   0.00   0.119   0.152   0.194   0.143   0.145   0.090   0.087   0.088   0.088
 1982 103   190   197   125     11     76    299     0     0   179    0.03   0.0   0.0   0.00   0.106   0.146   0.190   0.142   0.143   0.090   0.087   0.088   0.088
 1982 104   191   194   123     11     76    299     0     0   179    0.03   0.0   0.0   0.00   0.097   0.138   0.184   0.141   0.142   0.090   0.087   0.088   0.088
 1982 105   192   192   120     11     76    299     0     0   179    0.03   0.0   0.0   0.00   0.089   0.132   0.179   0.139   0.140   0.089   0.087   0.088   0.088
 1982 106   193   191   119     11     76    299     0     0   179    0.03   0.0   0.0   0.00   0.083   0.128   0.176   0.139   0.140   0.089   0.087   0.088   0.088
 1982 107   194   188   116     11     76    299     0     0   179    0.02   0.0   0.0   0.00   0.078   0.120   0.170   0.137   0.138   0.089   0.087   0.088   0.088
 1982 108   195   185   114     11     76    299     0     0   179    0.02   0.0   0.0   0.00   0.072   0.113   0.163   0.135   0.136   0.089   0.087   0.088   0.088
 1982 109   196   185   114     11     76    302     0     0   179    0.03   0.0   0.0   0.00   0.121   0.108   0.155   0.133   0.133   0.088   0.087   0.088   0.088
 1982 110   197   182   111     11     76    302     0     0   179    0.03   0.0   0.0   0.00   0.102   0.106   0.149   0.131   0.131   0.088   0.087   0.088   0.088
 1982 111   198   180   108     11     76    302     0     0   179    0.03   0.0   0.0   0.00   0.093   0.103   0.142   0.129   0.129   0.088   0.087   0.088   0.088
 1982 112   199   177   105     11     76    302     0     0   179    0.03   0.0   0.0   0.00   0.085   0.101   0.132   0.126   0.126   0.087   0.087   0.088   0.088
 1982 113   200   174   102     11     76    302     0     0   179    0.03   0.0   0.0   0.00   0.079   0.099   0.124   0.124   0.123   0.086   0.087   0.088   0.088
 1982 114   201   171   100     11     76    302     0     0   179    0.03   0.0   0.0   0.00   0.074   0.097   0.115   0.121   0.120   0.086   0.087   0.088   0.088
 1982 115   202   170    98     11     76    303     0     0   179    0.03   0.0   0.0   0.00   0.079   0.096   0.111   0.119   0.118   0.085   0.087   0.088   0.088
 1982 116   203   166    95     11     76    303     0     0   179    0.03   0.0   0.0   0.00   0.073   0.094   0.104   0.114   0.112   0.084   0.086   0.088   0.088
 1982 117   204   165    94     11     76    303     0     0   179    0.03   0.0   0.0   0.00   0.068   0.093   0.103   0.112   0.110   0.084   0.086   0.088   0.088
 1982 118   205   169    97     11     76    307     0     0   179    0.04   0.0   0.0   0.00   0.143   0.093   0.103   0.112   0.109   0.084   0.086   0.088   0.088
 1982 119   206   184   112     11     76    323     0     0   179    0.04   0.0   0.0   0.00   0.234   0.200   0.102   0.111   0.108   0.084   0.086   0.088   0.088
[...]
 1982 055   142   214   143     11     59    235     0     0   179    0.03   0.0   0.0   0.00   0.150   0.208   0.230   0.150   0.152   0.091   0.087   0.088   0.088
 1982 056   143   213   142     11     59    235     0     0   179    0.03   0.0   0.0   0.00   0.139   0.207   0.229   0.150   0.152   0.091   0.087   0.088   0.088
 1982 057   144   213   141     11     59    235     0     0   179    0.03   0.0   0.0   0.00   0.128   0.206   0.229   0.150   0.152   0.091   0.087   0.088   0.088
 1982 058   145   212   140     11     59    235     0     0   179    0.02   0.0   0.0   0.00   0.119   0.205   0.229   0.150   0.152   0.091   0.087   0.088   0.088
 1982 059   146   212   140     11     59    235     0     0   179    0.02   0.0   0.0   0.00   0.110   0.204   0.229   0.150   0.152   0.091   0.087   0.088   0.088
 1982 060   147   211   139     11     59    235     0     0   179    0.02   0.0   0.0   0.00   0.102   0.202   0.228   0.150   0.152   0.091   0.087   0.088   0.088
 1982 061   148   211   139     11     59    235     0     0   179    0.02   0.0   0.0   0.00   0.095   0.201   0.228   0.150   0.152   0.091   0.087   0.088   0.088
 1982 062   149   210   139     11     59    235     0     0   179    0.02   0.0   0.0   0.00   0.094   0.201   0.228   0.150   0.152   0.091   0.087   0.088   0.088
 1982 063   150   210   139     11     59    236     0     0   179    0.02   0.0   0.0   0.00   0.092   0.201   0.228   0.150   0.152   0.091   0.087   0.088   0.088
 1982 064   151   210   138     11     59    236     0     0   179    0.02   0.0   0.0   0.00   0.089   0.200   0.228   0.150   0.152   0.091   0.087   0.088   0.088
 1982 065   152   210   138     11     59    236     0     0   179    0.03   0.0   0.0   0.00   0.092   0.199   0.228   0.150   0.152   0.091   0.087   0.088   0.088
 1982 066   153   210   138     11     59    236     0     0   179    0.03   0.0   0.0   0.00   0.086   0.198   0.227   0.150   0.152   0.091   0.087   0.088   0.088
 1982 067   154   209   137     11     59    236     0     0   179    0.03   0.0   0.0   0.00   0.080   0.197   0.227   0.149   0.152   0.091   0.087   0.088   0.088
 1982 068   155   209   137     11     59    236     0     0   179    0.03   0.0   0.0   0.00   0.075   0.196   0.227   0.149   0.152   0.091   0.087   0.088   0.088
 1982 069   156   208   137     11     59    236     0     0   179    0.03   0.0   0.0   0.00   0.070   0.195   0.227   0.149   0.152   0.091   0.087   0.088   0.088
 1982 070   157   208   136     11     59    236     0     0   179    0.03   0.0   0.0   0.00   0.066   0.194   0.226   0.149   0.152   0.091   0.087   0.088   0.088
 1982 071   158   208   136     11     59    236     0     0   179    0.03   0.0   0.0   0.00   0.062   0.193   0.226   0.149   0.152   0.091   0.087   0.088   0.088
 1982 072   159   207   135     11     59    236     0     0   179    0.03   0.0   0.0   0.00   0.058   0.192   0.226   0.149   0.152   0.091   0.087   0.088   0.088
 1982 073   160   207   136     11     59    236     0     0   179    0.03   0.0   0.0   0.00   0.066   0.191   0.225   0.149   0.152   0.091   0.087   0.088   0.088
 1982 074   161   228   157     11     59    258     0     0   180    0.03   0.0   0.0   0.00   0.244   0.243   0.252   0.160   0.156   0.093   0.087   0.088   0.088
 1982 075   162   235   164     11     60    271     0     0   179    0.03   0.0   0.0   0.06   0.225   0.236   0.255   0.168   0.168   0.100   0.093   0.090   0.089
 1982 076   163   224   152     11     68    271     0     0   179    0.03   0.0   0.0   0.00   0.205   0.221   0.241   0.157   0.158   0.094   0.089   0.088   0.089
 1982 077   164   223   151     11     68    271     0     0   179    0.03   0.0   0.0   0.00   0.203   0.221   0.240   0.155   0.155   0.094   0.089   0.088   0.089
 1982 078   165   233   162     11     69    286     0     0   179    0.03   0.0   0.0   0.00   0.229   0.237   0.255   0.168   0.168   0.096   0.091   0.089   0.089
 1982 079   166   223   151     11     76    286     0     0   179    0.03   0.0   0.0   0.00   0.206   0.221   0.241   0.157   0.158   0.092   0.088   0.089   0.089
 1982 080   167   219   148     11     76    286     0     0   179    0.03   0.0   0.0   0.00   0.190   0.214   0.236   0.153   0.154   0.092   0.087   0.089   0.088
 1982 081   168   216   144     11     76    286     0     0   179    0.03   0.0   0.0   0.00   0.173   0.206   0.231   0.151   0.152   0.091   0.087   0.088   0.088
 1982 082   169   215   143     11     76    286     0     0   179    0.03   0.0   0.0   0.00   0.159   0.205   0.231   0.151   0.152   0.091   0.087   0.088   0.088
 1982 083   170   214   142     11     76    286     0     0   179    0.03   0.0   0.0   0.00   0.146   0.203   0.230   0.151   0.152   0.091   0.087   0.088   0.088
 1982 084   171   217   145     11     76    291     0     0   179    0.03   0.0   0.0   0.00   0.212   0.203   0.229   0.151   0.152   0.091   0.087   0.088   0.088
 1982 085   172   216   144     11     76    291     0     0   179    0.03   0.0   0.0   0.00   0.194   0.200   0.228   0.151   0.152   0.091   0.087   0.088   0.088
 1982 086   173   214   143     11     76    291     0     0   179    0.03   0.0   0.0   0.00   0.178   0.198   0.227   0.151   0.152   0.091   0.087   0.088   0.088
 1982 087   174   213   142     11     76    291     0     0   179    0.03   0.0   0.0   0.00   0.163   0.197   0.226   0.150   0.152   0.091   0.087   0.088   0.088
 1982 088   175   212   141     11     76    291     0     0   179    0.03   0.0   0.0   0.00   0.150   0.195   0.226   0.150   0.152   0.091   0.087   0.088   0.088
 1982 089   176   212   141     11     76    292     0     0   179    0.03   0.0   0.0   0.00   0.165   0.192   0.224   0.150   0.152   0.091   0.087   0.088   0.088
 1982 090   177   211   139     11     76    292     0     0   179    0.03   0.0   0.0   0.00   0.150   0.189   0.222   0.150   0.152   0.091   0.087   0.088   0.088
 1982 091   178   209   138     11     76    292     0     0   179    0.03   0.0   0.0   0.00   0.136   0.185   0.220   0.149   0.151   0.091   0.087   0.088   0.088
 1982 092   179   208   136     11     76    292     0     0   179    0.03   0.0   0.0   0.00   0.123   0.181   0.218   0.149   0.151   0.091   0.087   0.088   0.088
 1982 093   180   206   135     11     76    292     0     0   179    0.03   0.0   0.0   0.00   0.110   0.177   0.215   0.149   0.151   0.091   0.087   0.088   0.088
 1982 094   181   205   133     11     76    292     0     0   179    0.03   0.0   0.0   0.00   0.102   0.173   0.213   0.148   0.150   0.091   0.087   0.088   0.088
 1982 095   182   211   139     11     76    299     0     0   179    0.03   0.0   0.0   0.00   0.216   0.173   0.212   0.148   0.150   0.091   0.087   0.088   0.088
 1982 096   183   254   183     11     96    299     1    65   168    0.03   0.0   0.0   0.00   0.237   0.240   0.257   0.169   0.169   0.111   0.107   0.107   0.107
 1982 097   184   234   162     11    115    299     1    65   175    0.03   0.0   0.0   0.00   0.226   0.229   0.245   0.160   0.160   0.099   0.095   0.095   0.095
 1982 098   185   230   158     11    118    299     1    65   176    0.03   0.0   0.0   0.00   0.224   0.224   0.241   0.157   0.158   0.095   0.093   0.093   0.094
 1982 099   186   221   149     11    123    299     1    65   179    0.03   0.0   0.0   0.00   0.204   0.214   0.235   0.153   0.154   0.092   0.089   0.089   0.089
 1982 100   187   216   145     11    123    299     1    65   179    0.03   0.0   0.0   0.00   0.184   0.203   0.228   0.151   0.152   0.091   0.088   0.089   0.089
 1982 101   188   212   140     11    123    299     1    65   179    0.03   0.0   0.0   0.00   0.164   0.192   0.220   0.148   0.150   0.091   0.088   0.088   0.089
 1982 102   189   209   137     11    123    299     1    65   179    0.03   0.0   0.0   0.00   0.146   0.184   0.216   0.147   0.149   0.091   0.088   0.088   0.089
 1982 103   190   207   135     11    123    299     1    65   179    0.03   0.0   0.0   0.00   0.129   0.177   0.211   0.146   0.148   0.090   0.088   0.088   0.089
 1982 104   191   204   132     11    123    299     1    65   179    0.03   0.0   0.0   0.00   0.112   0.168   0.206   0.145   0.148   0.090   0.088   0.088   0.089
 1982 105   192   201   130     11    123    299     1    65   179    0.03   0.0   0.0   0.00   0.102   0.160   0.201   0.144   0.147   0.090   0.088   0.088   0.089
 1982 106   193   200   128     11    123    299     1    65   179    0.03   0.0   0.0   0.00   0.094   0.156   0.198   0.143   0.146   0.090   0.088   0.088   0.089
 1982 107   194   197   125     11    123    299     1    65   179    0.02   0.0   0.0   0.00   0.087   0.146   0.192   0.142   0.145   0.090   0.088   0.088   0.089
 1982 108   195   194   122     11    123    299     1    65   179    0.02   0.0   0.0   0.00   0.081   0.135   0.185   0.140   0.144   0.090   0.088   0.088   0.089
 1982 109   196   194   122     11    123    302     1    65   179    0.03   0.0   0.0   0.00   0.129   0.124   0.177   0.138   0.142   0.090   0.088   0.088   0.089
 1982 110   197   252   181     11    139    302     2   143   168    0.03   0.0   0.0   0.00   0.231   0.235   0.253   0.168   0.168   0.110   0.107   0.107   0.107
 1982 111   198   230   158     11    157    302     2   143   175    0.03   0.0   0.0   0.00   0.211   0.219   0.238   0.157   0.158   0.098   0.095   0.095   0.095
 1982 112   199   219   148     11    163    302     2   143   178    0.03   0.0   0.0   0.00   0.191   0.206   0.230   0.152   0.153   0.093   0.090   0.090   0.090
 1982 113   200   215   143     11    163    302     2   143   178    0.03   0.0   0.0   0.00   0.174   0.194   0.222   0.150   0.151   0.093   0.089   0.090   0.090
 1982 114   201   211   139     11    163    302     2   143   179    0.03   0.0   0.0   0.00   0.159   0.183   0.215   0.147   0.149   0.092   0.089   0.089   0.089
 1982 115   202   209   137     11    163    303     2   143   179    0.03   0.0   0.0   0.00   0.161   0.177   0.211   0.146   0.147   0.092   0.089   0.089   0.089
 1982 116   203   204   132     11    163    303     2   143   179    0.03   0.0   0.0   0.00   0.143   0.163   0.201   0.142   0.144   0.091   0.089   0.089   0.089
 1982 117   204   255   183     11    181    303     3   213   168    0.03   0.0   0.0   0.00   0.243   0.241   0.258   0.169   0.169   0.111   0.107   0.107   0.107
 1982 118   205   250   179     11    189    307     3   213   169    0.04   0.0   0.0   0.00   0.247   0.244   0.255   0.169   0.169   0.103   0.102   0.104   0.105
 1982 119   206   255   184     11    199    323     3   213   168    0.04   0.0   0.0   0.23   0.244   0.242   0.258   0.169   0.169   0.111   0.107   0.107   0.107
 1982 120   207   245   174     11    207    323     3   213   169    0.04   0.0   0.0   0.00   0.229   0.229   0.247   0.165   0.166   0.103   0.102   0.104   0.105
 1982 121   208   228   157     11    221    323     3   213   176    0.04   0.0   0.0   0.00   0.217   0.219   0.238   0.157   0.157   0.095   0.093   0.094   0.094
 1982 122   209   220   148     11    226    323     3   213   178    0.04   0.0   0.0   0.00   0.204   0.208   0.231   0.154   0.153   0.092   0.089   0.090   0.090
 1982 123   210   216   144     11    226    323     3   213   178    0.04   0.0   0.0   0.00   0.188   0.196   0.223   0.151   0.150   0.092   0.089   0.089   0.090
 1982 124   211   210   138     11    226    323     3   213   178    0.04   0.0   0.0   0.00   0.170   0.180   0.212   0.148   0.146   0.091   0.089   0.089   0.090
 1982 125   212   209   137     11    226    323     3   213   179    0.04   0.0   0.0   0.00   0.166   0.177   0.210   0.147   0.145   0.091   0.089   0.089   0.089
 1982 126   213   237   165     11    228    355     3   213   178    0.06   0.0   0.0   0.24   0.240   0.238   0.255   0.168   0.168   0.100   0.093   0.091   0.091
 1982 127   214   233   161     11    230    359     3   213   177    0.06   0.0   0.0   0.00   0.231   0.227   0.243   0.164   0.164   0.098   0.094   0.093   0.092
 1982 128   215   220   149     11    237    359     3   213   179    0.06   0.0   0.0   0.00   0.207   0.210   0.230   0.154   0.154   0.093   0.089   0.089   0.089
 1982 129   216   215   143     11    237    359     3   213   179    0.06   0.0   0.0   0.00   0.189   0.195   0.220   0.151   0.150   0.092   0.089   0.089   0.089
 1982 130   217   211   139     11    237    359     3   213   179    0.06   0.0   0.0   0.00   0.177   0.184   0.212   0.148   0.147   0.092   0.089   0.089   0.089
 1982 131   218   207   135     11    237    360     3   213   179    0.07   0.0   0.0   0.00   0.180   0.170   0.203   0.145   0.143   0.091   0.088   0.089   0.089
 1982 132   219   231   159     11    237    387     3   213   179    0.07   0.0   0.0   0.00   0.241   0.239   0.256   0.169   0.159   0.092   0.088   0.089   0.089
 1982 133   220   228   156     11    238    387     3   213   179    0.07   0.0   0.0   0.00   0.228   0.227   0.245   0.164   0.161   0.094   0.089   0.089   0.089
 1982 134   221   225   154     11    239    388     3   213   179    0.07   0.0   0.0   0.00   0.226   0.221   0.239   0.158   0.159   0.094   0.090   0.089   0.089
 1982 135   222   230   159     11    241    400     3   213   178    0.07   0.0   0.0   0.00   0.230   0.230   0.250   0.166   0.161   0.095   0.090   0.090   0.090
 1982 136   223   229   157     11    242    402     3   213   178    0.07   0.0   0.0   0.00   0.238   0.225   0.242   0.161   0.160   0.095   0.090   0.090   0.090
 1982 137   224   228   157     11    243    407     3   213   178    0.07   0.0   0.0   0.00   0.236   0.233   0.241   0.159   0.159   0.094   0.090   0.090   0.090
 1982 138   225   223   152     11    245    408     3   213   178    0.07   0.0   0.0   0.00   0.228   0.218   0.234   0.155   0.154   0.093   0.089   0.090   0.090
 1982 139   226   217   146     11    245    408     3   213   179    0.07   0.0   0.0   0.00   0.208   0.204   0.224   0.152   0.150   0.092   0.089   0.090   0.088
 1982 140   227   214   142     11    245    408     3   213   179    0.07   0.0   0.0   0.00   0.198   0.196   0.218   0.150   0.148   0.091   0.089   0.090   0.088
 1982 141   228   233   161     11    247    432     3   213   179    0.07   0.0   0.0   0.02   0.234   0.233   0.252   0.167   0.167   0.096   0.091   0.090   0.089
 1982 142   229   228   157     11    248    433     3   213   178    0.07   0.0   0.0   0.00   0.222   0.221   0.241   0.161   0.162   0.096   0.091   0.091   0.090
 1982 143   230   219   148     11    252    433     3   213   179    0.07   0.0   0.0   0.00   0.206   0.208   0.232   0.154   0.154   0.092   0.088   0.088   0.088
 1982 144   231   217   146     11    252    433     3   213   179    0.07   0.0   0.0   0.00   0.200   0.203   0.229   0.153   0.153   0.092   0.088   0.088   0.088
 1982 145   232   231   159     11    253    450     3   213   179    0.07   0.0   0.0   0.00   0.238   0.237   0.255   0.168   0.161   0.093   0.089   0.089   0.089
 1982 146   233   247   175     12    257    476     3   213   174    0.07   0.0   0.0   0.83   0.231   0.231   0.251   0.167   0.166   0.110   0.107   0.102   0.097
 1982 147   234   241   170     12    263    483     3   213   172    0.07   0.0   0.0   0.00   0.228   0.229   0.244   0.165   0.163   0.102   0.101   0.102   0.100
 1982 148   235   226   154     12    275    483     3   213   177    0.07   0.0   0.0   0.00   0.216   0.217   0.235   0.156   0.155   0.095   0.092   0.093   0.092
 1982 149   236   244   173     12    279    511     3   213   175    0.07   0.0   0.0   0.56   0.231   0.231   0.251   0.167   0.166   0.110   0.102   0.099   0.096
 1982 150   237   237   165     12    284    512     3   213   174    0.07   0.0   0.0   0.00   0.223   0.220   0.240   0.161   0.162   0.101   0.099   0.099   0.098
 1982 151   238   241   169     12    289    524     3   213   174    0.07   0.0   0.0   0.00   0.238   0.237   0.255   0.168   0.165   0.098   0.096   0.098   0.098
 1982 152   239   224   152     12    300    524     3   213   178    0.07   0.0   0.0   0.00   0.212   0.216   0.236   0.156   0.155   0.093   0.090   0.091   0.091
 1982 153   240   221   150     12    302    525     3   213   178    0.07   0.0   0.0   0.00   0.221   0.212   0.233   0.155   0.153   0.093   0.088   0.089   0.090
 1982 154   241   220   149     12    302    526     3   213   179    0.07   0.0   0.0   0.00   0.227   0.212   0.230   0.154   0.152   0.093   0.088   0.089   0.088
 1982 155   242   220   148     12    302    528     3   213   179    0.07   0.0   0.0   0.00   0.237   0.217   0.225   0.152   0.150   0.092   0.088   0.089   0.088
 1982 156   243   215   144     12    302    528     3   213   179    0.07   0.0   0.0   0.00   0.214   0.209   0.217   0.150   0.147   0.091   0.087   0.089   0.088
 1982 157   244   211   139     12    302    528     3   213   180    0.07   0.0   0.0   0.00   0.198   0.197   0.209   0.147   0.144   0.091   0.087   0.089   0.088
 1982 158   245   218   146     12    302    540     3   213   180    0.07   0.0   0.0   0.00   0.218   0.232   0.233   0.144   0.140   0.090   0.087   0.089   0.088
 1982 159   246   213   141     12    302    540     3   213   180    0.07   0.0   0.0   0.00   0.201   0.214   0.227   0.141   0.137   0.089   0.086   0.089   0.088
 1982 160   247   225   154     12    302    559     3   213   180    0.07   0.0   0.0   0.00   0.228   0.230   0.250   0.167   0.153   0.091   0.086   0.088   0.088
 1982 161   248   218   146     12    304    559     3   213   180    0.07   0.0   0.0   0.00   0.205   0.211   0.233   0.155   0.150   0.090   0.086   0.088   0.087
 1982 162   249   215   144     12    304    559     3   213   180    0.07   0.0   0.0   0.00   0.196   0.205   0.229   0.154   0.148   0.090   0.086   0.088   0.087
 1982 163   250   211   140     12    304    559     3   213   180    0.06   0.0   0.0   0.00   0.172   0.195   0.223   0.152   0.146   0.089   0.086   0.088   0.087
 1982 164   251   209   138     12    304    559     3   213   180    0.06   0.0   0.0   0.00   0.155   0.191   0.221   0.151   0.145   0.089   0.086   0.088   0.087
 1982 165   252   209   137     12    304    559     3   213   180    0.07   0.0   0.0   0.00   0.153   0.190   0.220   0.151   0.145   0.089   0.086   0.088   0.087
 1982 166   253   227   155     12    304    582     3   213   180    0.07   0.0   0.0   0.00   0.224   0.235   0.254   0.167   0.158   0.092   0.085   0.087   0.087
 1982 167   254   222   150     12    304    582     3   213   180    0.07   0.0   0.0   0.00   0.201   0.219   0.241   0.160   0.159   0.093   0.088   0.087   0.086
 1982 168   255   217   145     12    305    582     3   213   180    0.07   0.0   0.0   0.00   0.176   0.209   0.234   0.154   0.154   0.092   0.088   0.086   0.086
 1982 169   256   213   141     12    305    583     3   213   180    0.07   0.0   0.0   0.00   0.173   0.200   0.229   0.151   0.152   0.091   0.087   0.086   0.086
 1982 170   257   212   141     12    305    583     3   213   180    0.07   0.0   0.0   0.00   0.159   0.199   0.229   0.151   0.152   0.091   0.087   0.086   0.086
 1982 171   258   212   140     12    305    583     3   213   180    0.07   0.0   0.0   0.00   0.147   0.198   0.228   0.151   0.152   0.091   0.087   0.086   0.086
 1982 172   259   211   139     12    305    583     3   213   180    0.06   0.0   0.0   0.00   0.136   0.197   0.228   0.151   0.151   0.091   0.087   0.086   0.086
 1982 173   260   222   150     12    305    599     3   213   180    0.07   0.0   0.0   0.00   0.225   0.235   0.244   0.156   0.154   0.091   0.086   0.085   0.085
 1982 174   261   219   147     12    305    600     3   213   180    0.07   0.0   0.0   0.00   0.212   0.223   0.239   0.155   0.154   0.092   0.086   0.085   0.085
