
*SOIL N BALANCE - CENTURY ROUTINES

*DSSAT Cropping System Model Ver. 4.5.1.023 -Stub         NOV 07, 2014; 01:51:55

!                     |------------------- N State Variables -------------------| |------------ N Additions ------------| |---------- N Subtractions -----------| |-Mineralization--|
!                                                                                   Harvest   Applied                                  Denit-             Ammonia    Miner-    Immob-  Seasonal
!                       Surface      SOM1      SOM2      SOM3    Litter     Inorg   Residue   Residue  Fertiliz   Senesed   Leached    rified    Uptake  Volatil.    alized    ilized   Balance
@Run FILEX         TN      SN0D     S1NTD     S2NTD     S3NTD      LNTD      NIAD      HRNH     RESNC      NICM     SNNTC      NLCM      NDNC      NUCM      AMLS      NMNC      NIMC   SEASBAL
   1 KSAS8101.WHX INIT     0.00      0.00   7840.65      0.00     80.10    176.62
   1 KSAS8101.WHX   1      0.00      0.00   7824.09      0.00     18.61     63.74      0.00      0.00      0.00      5.11    118.63      1.14     76.41      0.00     82.07      0.05      1.28
   2 KSAS8101.WHX   2      0.00      0.00   7824.51      0.00     18.93     88.46      0.00      0.00     60.00      5.89    124.11      1.53    104.50      1.22     82.01      0.05      1.23
   3 KSAS8101.WHX   3      0.00      0.00   7824.54      0.00     19.39    179.30      0.00      0.00    180.00      6.14    129.98      2.12    127.88      2.60     81.72      0.05      3.59
   4 KSAS8101.WHX   4      0.00      0.00   7823.23      0.00     16.89     24.36      0.00      0.00      0.00      4.92    184.06      1.28     52.28      0.00     84.47      0.05      0.94
   5 KSAS8101.WHX   5      0.00      0.00   7823.32      0.00     17.29     26.43      0.00      0.00     60.00      5.76    223.88      1.74     68.64      1.33     84.71      0.05      0.73
   6 KSAS8101.WHX   6      0.00      0.00   7823.39      0.00     17.56     53.07      0.00      0.00    180.00      6.21    288.45      2.74     96.17      1.68     84.75      0.05      0.78
