*WARNING DETAIL FILE

******************************************************************************

*DSSAT Cropping System Model Ver. 4.5.1.023 -Stub         OCT 13, 2014; 10:45:28
                                                                                
*RUN   1        : DRYLAND  - 0 KG N/HA      CSCER045 KSAS8101    1              
 MODEL          : CSCER045 - Wheat                                              
 EXPERIMENT     : KSAS8101 WH                                                   
 DATA PATH      :                                                               
 TREATMENT  1   : DRYLAND  - 0 KG N/HA      CSCER045                            
  

 IPSOIL  YEAR DOY =    0   0
 Saturated hydraulic conductivity equal to zero for one or more soil layers.   
 Data will be treated as missing.                                              

 IPWTH   YEAR DOY = 1981 334
 Warning: SRAD < 1                                                             
 KSAS8102.WTH                                                                  
 Line       66                                                                 
 SRAD =   0.70                                                                 

 IPWTH   YEAR DOY = 1981 350
 Warning: SRAD < 1                                                             
 KSAS8102.WTH                                                                  
 Line       82                                                                 
 SRAD =   0.70                                                                 

 IPWTH   YEAR DOY = 1982  62
 Warning: SRAD < 1                                                             
 KSAS8102.WTH                                                                  
 Line      159                                                                 
 SRAD =   0.80                                                                 

******************************************************************************

*DSSAT Cropping System Model Ver. 4.5.1.023 -Stub         OCT 13, 2014; 10:45:28
                                                                                
*RUN   2        : DRYLAND  - 60 KG N/HA     CSCER045 KSAS8101    2              
 MODEL          : CSCER045 - Wheat                                              
 EXPERIMENT     : KSAS8101 WH                                                   
 DATA PATH      :                                                               
 TREATMENT  2   : DRYLAND  - 60 KG N/HA     CSCER045                            
  

 IPSOIL  YEAR DOY =    0   0
 Saturated hydraulic conductivity equal to zero for one or more soil layers.   
 Data will be treated as missing.                                              

 IPWTH   YEAR DOY = 1981 334
 Warning: SRAD < 1                                                             
 KSAS8102.WTH                                                                  
 Line       66                                                                 
 SRAD =   0.70                                                                 

 IPWTH   YEAR DOY = 1981 350
 Warning: SRAD < 1                                                             
 KSAS8102.WTH                                                                  
 Line       82                                                                 
 SRAD =   0.70                                                                 

 IPWTH   YEAR DOY = 1982  62
 Warning: SRAD < 1                                                             
 KSAS8102.WTH                                                                  
 Line      159                                                                 
 SRAD =   0.80                                                                 

******************************************************************************

*DSSAT Cropping System Model Ver. 4.5.1.023 -Stub         OCT 13, 2014; 10:45:28
                                                                                
*RUN   3        : DRYLAND  - 180 KG N/HA SP CSCER045 KSAS8101    3              
 MODEL          : CSCER045 - Wheat                                              
 EXPERIMENT     : KSAS8101 WH                                                   
 DATA PATH      :                                                               
 TREATMENT  3   : DRYLAND  - 180 KG N/HA SP CSCER045                            
  

 IPSOIL  YEAR DOY =    0   0
 Saturated hydraulic conductivity equal to zero for one or more soil layers.   
 Data will be treated as missing.                                              

 IPWTH   YEAR DOY = 1981 334
 Warning: SRAD < 1                                                             
 KSAS8102.WTH                                                                  
 Line       66                                                                 
 SRAD =   0.70                                                                 

 IPWTH   YEAR DOY = 1981 350
 Warning: SRAD < 1                                                             
 KSAS8102.WTH                                                                  
 Line       82                                                                 
 SRAD =   0.70                                                                 

 IPWTH   YEAR DOY = 1982  62
 Warning: SRAD < 1                                                             
 KSAS8102.WTH                                                                  
 Line      159                                                                 
 SRAD =   0.80                                                                 

******************************************************************************

*DSSAT Cropping System Model Ver. 4.5.1.023 -Stub         OCT 13, 2014; 10:45:28
                                                                                
*RUN   4        : IRRIGATED - 0 KG N/HA     CSCER045 KSAS8101    4              
 MODEL          : CSCER045 - Wheat                                              
 EXPERIMENT     : KSAS8101 WH                                                   
 DATA PATH      :                                                               
 TREATMENT  4   : IRRIGATED - 0 KG N/HA     CSCER045                            
  

 IPSOIL  YEAR DOY =    0   0
 Saturated hydraulic conductivity equal to zero for one or more soil layers.   
 Data will be treated as missing.                                              

 IPWTH   YEAR DOY = 1981 334
 Warning: SRAD < 1                                                             
 KSAS8102.WTH                                                                  
 Line       66                                                                 
 SRAD =   0.70                                                                 

 IPWTH   YEAR DOY = 1981 350
 Warning: SRAD < 1                                                             
 KSAS8102.WTH                                                                  
 Line       82                                                                 
 SRAD =   0.70                                                                 

 IPWTH   YEAR DOY = 1982  62
 Warning: SRAD < 1                                                             
 KSAS8102.WTH                                                                  
 Line      159                                                                 
 SRAD =   0.80                                                                 

******************************************************************************

*DSSAT Cropping System Model Ver. 4.5.1.023 -Stub         OCT 13, 2014; 10:45:28
                                                                                
*RUN   5        : IRRIGATED - 60 KG N/HA    CSCER045 KSAS8101    5              
 MODEL          : CSCER045 - Wheat                                              
 EXPERIMENT     : KSAS8101 WH                                                   
 DATA PATH      :                                                               
 TREATMENT  5   : IRRIGATED - 60 KG N/HA    CSCER045                            
  

 IPSOIL  YEAR DOY =    0   0
 Saturated hydraulic conductivity equal to zero for one or more soil layers.   
 Data will be treated as missing.                                              

 IPWTH   YEAR DOY = 1981 334
 Warning: SRAD < 1                                                             
 KSAS8102.WTH                                                                  
 Line       66                                                                 
 SRAD =   0.70                                                                 

 IPWTH   YEAR DOY = 1981 350
 Warning: SRAD < 1                                                             
 KSAS8102.WTH                                                                  
 Line       82                                                                 
 SRAD =   0.70                                                                 

 IPWTH   YEAR DOY = 1982  62
 Warning: SRAD < 1                                                             
 KSAS8102.WTH                                                                  
 Line      159                                                                 
 SRAD =   0.80                                                                 

******************************************************************************

*DSSAT Cropping System Model Ver. 4.5.1.023 -Stub         OCT 13, 2014; 10:45:28
                                                                                
*RUN   6        : IRRIGATED 180 KG N/HA SPL CSCER045 KSAS8101    6              
 MODEL          : CSCER045 - Wheat                                              
 EXPERIMENT     : KSAS8101 WH                                                   
 DATA PATH      :                                                               
 TREATMENT  6   : IRRIGATED 180 KG N/HA SPL CSCER045                            
  

 IPSOIL  YEAR DOY =    0   0
 Saturated hydraulic conductivity equal to zero for one or more soil layers.   
 Data will be treated as missing.                                              

 IPWTH   YEAR DOY = 1981 334
 Warning: SRAD < 1                                                             
 KSAS8102.WTH                                                                  
 Line       66                                                                 
 SRAD =   0.70                                                                 

 IPWTH   YEAR DOY = 1981 350
 Warning: SRAD < 1                                                             
 KSAS8102.WTH                                                                  
 Line       82                                                                 
 SRAD =   0.70                                                                 

 IPWTH   YEAR DOY = 1982  62
 Warning: SRAD < 1                                                             
 KSAS8102.WTH                                                                  
 Line      159                                                                 
 SRAD =   0.80                                                                 
